* PEX produced on Thu Mar 14 08:36:32 AM CET 2024 using /foss/tools/osic-multitool/iic-pex.sh with m=1 and s=1
* NGSPICE file created from tt_um_hpretl_tt06_tdc.ext - technology: sky130A

.subckt tt_um_hpretl_tt06_tdc clk ena rst_n ui_in[1] ui_in[2] ui_in[5] ui_in[7] uio_in[0]
+ uio_in[1] uio_in[2] uio_in[3] uio_in[4] uio_in[5] uio_in[6] uio_in[7] uio_oe[1]
+ uio_oe[3] uio_oe[4] uio_oe[6] uio_oe[7] uio_out[3] uio_out[4] uio_out[6] uio_out[7]
+ uo_out[4] ui_in[0] ui_in[4] uio_oe[0] ui_in[6] uio_out[1] uio_out[0] uo_out[3] uio_out[5]
+ uio_oe[5] uio_out[2] uo_out[2] uio_oe[2] uo_out[1] uo_out[0] uo_out[7] ui_in[3]
+ uo_out[6] uo_out[5] VGND VPWR
X0 a_9135_5487# _028_ a_9217_5487# VPWR sky130_fd_pr__pfet_01v8_hvt ad=0.253 pd=2.52 as=0.135 ps=1.27 w=1 l=0.15
X1 VPWR a_7470_17732# a_7399_17833# VPWR sky130_fd_pr__pfet_01v8_hvt ad=0.179 pd=1.26 as=0.109 ps=1.08 w=0.75 l=0.15
X2 VGND tdc0.w_dly_sig\[38\] tdc0.w_dly_sig_n\[38\] VGND sky130_fd_pr__nfet_01v8 ad=0.169 pd=1.82 as=0.0878 ps=0.92 w=0.65 l=0.15
X3 VPWR a_12134_6549# _010_ VPWR sky130_fd_pr__pfet_01v8_hvt ad=0.175 pd=1.35 as=0.135 ps=1.27 w=1 l=0.15
X4 VGND _054_ a_10883_11721# VGND sky130_fd_pr__nfet_01v8 ad=0.0567 pd=0.69 as=0.0693 ps=0.75 w=0.42 l=0.15
X5 VPWR tdc0.w_dly_sig_n\[0\] tdc0.w_dly_sig\[1\] VPWR sky130_fd_pr__pfet_01v8_hvt ad=0.135 pd=1.27 as=0.135 ps=1.27 w=1 l=0.15
X6 VPWR a_8879_11989# a_8795_12015# VPWR sky130_fd_pr__pfet_01v8_hvt ad=0.111 pd=1.37 as=0.0882 ps=0.84 w=0.42 l=0.15
X7 a_10774_15101# a_10527_14735# VPWR VPWR sky130_fd_pr__pfet_01v8_hvt ad=0.0767 pd=0.785 as=0.179 ps=1.26 w=0.42 l=0.15
X8 a_8561_9129# a_7571_8757# a_8435_8751# VGND sky130_fd_pr__nfet_01v8 ad=0.066 pd=0.745 as=0.0684 ps=0.74 w=0.36 l=0.15
X9 VGND a_17555_6807# tdc0.o_result\[116\] VGND sky130_fd_pr__nfet_01v8 ad=0.0878 pd=0.92 as=0.169 ps=1.82 w=0.65 l=0.15
X10 VGND tdc0.w_dly_sig_n\[33\] tdc0.w_dly_sig_n\[35\] VGND sky130_fd_pr__nfet_01v8 ad=0.169 pd=1.82 as=0.0878 ps=0.92 w=0.65 l=0.15
X11 a_2290_2879# a_2122_3133# VGND VGND sky130_fd_pr__nfet_01v8 ad=0.0989 pd=0.995 as=0.121 ps=1.09 w=0.64 l=0.15
X12 tdc0.w_dly_sig\[51\] tdc0.w_dly_sig_n\[50\] VPWR VPWR sky130_fd_pr__pfet_01v8_hvt ad=0.135 pd=1.27 as=0.26 ps=2.52 w=1 l=0.15
X13 tdc0.w_dly_sig_n\[67\] tdc0.w_dly_sig_n\[65\] VGND VGND sky130_fd_pr__nfet_01v8 ad=0.0878 pd=0.92 as=0.169 ps=1.82 w=0.65 l=0.15
X15 a_13353_8207# a_13176_8207# VPWR VPWR sky130_fd_pr__pfet_01v8_hvt ad=0.26 pd=2.52 as=0.141 ps=1.33 w=1 l=0.15
X16 tdc0.o_result\[82\] a_2715_1109# VPWR VPWR sky130_fd_pr__pfet_01v8_hvt ad=0.26 pd=2.52 as=0.135 ps=1.27 w=1 l=0.15
X17 tdc0.w_dly_sig_n\[68\] tdc0.w_dly_sig_n\[66\] VPWR VPWR sky130_fd_pr__pfet_01v8_hvt ad=0.135 pd=1.27 as=0.26 ps=2.52 w=1 l=0.15
X18 a_17033_8751# tdc0.w_dly_sig\[118\] VPWR VPWR sky130_fd_pr__pfet_01v8_hvt ad=0.0578 pd=0.695 as=0.109 ps=1.36 w=0.42 l=0.15
X19 a_15374_13103# a_15127_13481# VPWR VPWR sky130_fd_pr__pfet_01v8_hvt ad=0.0767 pd=0.785 as=0.179 ps=1.26 w=0.42 l=0.15
X21 VPWR clknet_4_3_0_clk a_7019_5493# VPWR sky130_fd_pr__pfet_01v8_hvt ad=0.0864 pd=0.91 as=0.166 ps=1.8 w=0.64 l=0.15
X22 VGND tdc0.w_dly_sig_n\[69\] tdc0.w_dly_sig_n\[71\] VGND sky130_fd_pr__nfet_01v8 ad=0.169 pd=1.82 as=0.0878 ps=0.92 w=0.65 l=0.15
X23 a_13817_9545# tdc0.o_result\[28\] VPWR VPWR sky130_fd_pr__pfet_01v8_hvt ad=0.16 pd=1.32 as=0.253 ps=2.52 w=1 l=0.15
X24 tdc0.w_dly_sig_n\[7\] tdc0.w_dly_sig\[7\] VPWR VPWR sky130_fd_pr__pfet_01v8_hvt ad=0.135 pd=1.27 as=0.26 ps=2.52 w=1 l=0.15
X25 a_15462_15101# a_15189_14735# a_15377_14735# VPWR sky130_fd_pr__pfet_01v8_hvt ad=0.0683 pd=0.745 as=0.0578 ps=0.695 w=0.42 l=0.15
X27 a_1573_6581# a_1407_6581# VPWR VPWR sky130_fd_pr__pfet_01v8_hvt ad=0.166 pd=1.8 as=0.0864 ps=0.91 w=0.64 l=0.15
X29 a_10759_8181# _004_ VGND VGND sky130_fd_pr__nfet_01v8 ad=0.111 pd=1.37 as=0.0703 ps=0.755 w=0.42 l=0.15
X30 a_17739_4631# a_17835_4631# VPWR VPWR sky130_fd_pr__pfet_01v8_hvt ad=0.27 pd=2.54 as=0.135 ps=1.27 w=1 l=0.15
X31 net3 a_10423_591# VPWR VPWR sky130_fd_pr__pfet_01v8_hvt ad=0.135 pd=1.27 as=0.149 ps=1.33 w=1 l=0.15
X32 VGND a_16733_5461# _064_ VGND sky130_fd_pr__nfet_01v8 ad=0.257 pd=1.44 as=0.169 ps=1.82 w=0.65 l=0.15
X33 a_12117_8457# net2 VPWR VPWR sky130_fd_pr__pfet_01v8_hvt ad=0.135 pd=1.27 as=0.146 ps=1.34 w=1 l=0.15
X34 tdc0.w_dly_sig\[40\] tdc0.w_dly_sig_n\[39\] VPWR VPWR sky130_fd_pr__pfet_01v8_hvt ad=0.135 pd=1.27 as=0.26 ps=2.52 w=1 l=0.15
X35 clknet_4_11_0_clk a_16762_8207# VPWR VPWR sky130_fd_pr__pfet_01v8_hvt ad=0.14 pd=1.28 as=0.14 ps=1.28 w=1 l=0.15
X36 a_16762_8207# clknet_0_clk VGND VGND sky130_fd_pr__nfet_01v8 ad=0.0588 pd=0.7 as=0.111 ps=1.37 w=0.42 l=0.15
X37 a_11504_11445# _056_ a_11892_11471# VGND sky130_fd_pr__nfet_01v8 ad=0.0878 pd=0.92 as=0.169 ps=1.82 w=0.65 l=0.15
X38 VGND a_3698_12559# clknet_4_4_0_clk VGND sky130_fd_pr__nfet_01v8 ad=0.113 pd=1.38 as=0.0588 ps=0.7 w=0.42 l=0.15
X40 a_9374_14165# a_9206_14191# VGND VGND sky130_fd_pr__nfet_01v8 ad=0.0989 pd=0.995 as=0.121 ps=1.09 w=0.64 l=0.15
X41 a_15561_17999# tdc0.w_dly_sig\[23\] VPWR VPWR sky130_fd_pr__pfet_01v8_hvt ad=0.0578 pd=0.695 as=0.109 ps=1.36 w=0.42 l=0.15
X42 a_7553_7663# a_7019_7669# a_7458_7663# VPWR sky130_fd_pr__pfet_01v8_hvt ad=0.0767 pd=0.785 as=0.0683 ps=0.745 w=0.42 l=0.15
X43 a_3686_18365# a_3413_17999# a_3601_17999# VPWR sky130_fd_pr__pfet_01v8_hvt ad=0.0683 pd=0.745 as=0.0578 ps=0.695 w=0.42 l=0.15
X44 _053_ a_10975_17455# VGND VGND sky130_fd_pr__nfet_01v8 ad=0.169 pd=1.82 as=0.101 ps=0.96 w=0.65 l=0.15
X45 VGND _005_ a_12210_9071# VGND sky130_fd_pr__nfet_01v8 ad=0.0878 pd=0.92 as=0.0878 ps=0.92 w=0.65 l=0.15
X46 VGND tdc0.w_dly_sig\[28\] tdc0.w_dly_sig_n\[28\] VGND sky130_fd_pr__nfet_01v8 ad=0.169 pd=1.82 as=0.0878 ps=0.92 w=0.65 l=0.15
X48 tdc0.w_dly_sig\[27\] tdc0.w_dly_sig_n\[26\] VGND VGND sky130_fd_pr__nfet_01v8 ad=0.0878 pd=0.92 as=0.169 ps=1.82 w=0.65 l=0.15
X51 a_6173_8207# a_6007_8207# VGND VGND sky130_fd_pr__nfet_01v8 ad=0.109 pd=1.36 as=0.0567 ps=0.69 w=0.42 l=0.15
X52 tdc0.w_dly_sig_n\[93\] tdc0.w_dly_sig\[93\] VPWR VPWR sky130_fd_pr__pfet_01v8_hvt ad=0.135 pd=1.27 as=0.26 ps=2.52 w=1 l=0.15
X53 a_8228_11305# a_7829_10933# a_8102_10927# VGND sky130_fd_pr__nfet_01v8 ad=0.0696 pd=0.765 as=0.0621 ps=0.705 w=0.36 l=0.15
X54 VPWR a_7074_15935# a_7001_16189# VPWR sky130_fd_pr__pfet_01v8_hvt ad=0.179 pd=1.26 as=0.0767 ps=0.785 w=0.42 l=0.15
X55 a_11610_13380# a_11410_13225# a_11759_13469# VGND sky130_fd_pr__nfet_01v8 ad=0.0621 pd=0.705 as=0.0696 ps=0.765 w=0.36 l=0.15
X56 a_13947_5487# a_13165_5493# a_13863_5487# VPWR sky130_fd_pr__pfet_01v8_hvt ad=0.0882 pd=0.84 as=0.0567 ps=0.69 w=0.42 l=0.15
X57 tdc0.w_dly_sig\[76\] tdc0.w_dly_sig_n\[75\] VPWR VPWR sky130_fd_pr__pfet_01v8_hvt ad=0.135 pd=1.27 as=0.26 ps=2.52 w=1 l=0.15
X58 VPWR a_15887_15101# a_16055_15003# VPWR sky130_fd_pr__pfet_01v8_hvt ad=0.135 pd=1.27 as=0.27 ps=2.54 w=1 l=0.15
X59 _095_ a_14747_7663# VGND VGND sky130_fd_pr__nfet_01v8 ad=0.169 pd=1.82 as=0.101 ps=0.96 w=0.65 l=0.15
X60 tdc0.w_dly_sig\[10\] tdc0.w_dly_sig\[8\] VPWR VPWR sky130_fd_pr__pfet_01v8_hvt ad=0.135 pd=1.27 as=0.26 ps=2.52 w=1 l=0.15
X61 VPWR _002_ a_9319_7485# VPWR sky130_fd_pr__pfet_01v8_hvt ad=0.0567 pd=0.69 as=0.109 ps=1.36 w=0.42 l=0.15
X62 a_10401_7369# _001_ a_10147_7369# VPWR sky130_fd_pr__pfet_01v8_hvt ad=0.135 pd=1.27 as=0.135 ps=1.27 w=1 l=0.15
X63 tdc0.w_dly_sig\[64\] tdc0.w_dly_sig_n\[63\] VGND VGND sky130_fd_pr__nfet_01v8 ad=0.0878 pd=0.92 as=0.169 ps=1.82 w=0.65 l=0.15
X64 a_10883_11721# _055_ VGND VGND sky130_fd_pr__nfet_01v8 ad=0.0693 pd=0.75 as=0.109 ps=1.36 w=0.42 l=0.15
X65 tdc0.w_dly_sig_n\[55\] tdc0.w_dly_sig\[55\] VPWR VPWR sky130_fd_pr__pfet_01v8_hvt ad=0.135 pd=1.27 as=0.26 ps=2.52 w=1 l=0.15
X66 tdc0.w_dly_sig\[122\] tdc0.w_dly_sig_n\[121\] VPWR VPWR sky130_fd_pr__pfet_01v8_hvt ad=0.135 pd=1.27 as=0.26 ps=2.52 w=1 l=0.15
X67 VPWR tdc0.w_dly_sig_n\[43\] tdc0.w_dly_sig\[44\] VPWR sky130_fd_pr__pfet_01v8_hvt ad=0.26 pd=2.52 as=0.135 ps=1.27 w=1 l=0.15
X68 a_4421_11305# a_3431_10933# a_4295_10927# VGND sky130_fd_pr__nfet_01v8 ad=0.066 pd=0.745 as=0.0684 ps=0.74 w=0.36 l=0.15
X69 VPWR a_7856_14165# clknet_4_7_0_clk VPWR sky130_fd_pr__pfet_01v8_hvt ad=0.14 pd=1.28 as=0.14 ps=1.28 w=1 l=0.15
X70 VPWR a_4755_4399# a_4923_4373# VPWR sky130_fd_pr__pfet_01v8_hvt ad=0.135 pd=1.27 as=0.27 ps=2.54 w=1 l=0.15
X71 a_16301_6031# _012_ VGND VGND sky130_fd_pr__nfet_01v8 ad=0.114 pd=1 as=0.101 ps=0.96 w=0.65 l=0.15
X72 tdc0.w_dly_sig\[128\] tdc0.w_dly_sig_n\[127\] VGND VGND sky130_fd_pr__nfet_01v8 ad=0.0878 pd=0.92 as=0.169 ps=1.82 w=0.65 l=0.15
X73 a_12642_7271# net5 VGND VGND sky130_fd_pr__nfet_01v8 ad=0.109 pd=1.36 as=0.097 ps=0.975 w=0.42 l=0.15
X74 VGND tdc0.w_dly_sig\[24\] tdc0.w_dly_sig_n\[24\] VGND sky130_fd_pr__nfet_01v8 ad=0.169 pd=1.82 as=0.0878 ps=0.92 w=0.65 l=0.15
X75 tdc0.w_dly_sig\[69\] tdc0.w_dly_sig_n\[68\] VGND VGND sky130_fd_pr__nfet_01v8 ad=0.0878 pd=0.92 as=0.169 ps=1.82 w=0.65 l=0.15
X76 a_12118_9295# _081_ a_12284_9545# VGND sky130_fd_pr__nfet_01v8 ad=0.0878 pd=0.92 as=0.0878 ps=0.92 w=0.65 l=0.15
X77 VGND tdc0.w_dly_sig\[96\] tdc0.w_dly_sig_n\[96\] VGND sky130_fd_pr__nfet_01v8 ad=0.169 pd=1.82 as=0.0878 ps=0.92 w=0.65 l=0.15
X78 _026_ a_11490_6005# VPWR VPWR sky130_fd_pr__pfet_01v8_hvt ad=0.135 pd=1.27 as=0.135 ps=1.27 w=1 l=0.15
X79 tdc0.w_dly_sig\[11\] tdc0.w_dly_sig\[9\] VGND VGND sky130_fd_pr__nfet_01v8 ad=0.0878 pd=0.92 as=0.169 ps=1.82 w=0.65 l=0.15
X80 a_2029_9295# a_1039_9295# a_1903_9661# VGND sky130_fd_pr__nfet_01v8 ad=0.066 pd=0.745 as=0.0684 ps=0.74 w=0.36 l=0.15
X81 clknet_4_9_0_clk a_14664_6005# VPWR VPWR sky130_fd_pr__pfet_01v8_hvt ad=0.14 pd=1.28 as=0.14 ps=1.28 w=1 l=0.15
X82 a_10945_14735# a_10391_14709# a_10598_14709# VGND sky130_fd_pr__nfet_01v8 ad=0.0813 pd=0.83 as=0.0621 ps=0.705 w=0.36 l=0.15
X83 a_10931_2919# a_11027_2741# VGND VGND sky130_fd_pr__nfet_01v8 ad=0.169 pd=1.82 as=0.0878 ps=0.92 w=0.65 l=0.15
X84 a_6177_12015# tdc0.w_dly_sig\[58\] VPWR VPWR sky130_fd_pr__pfet_01v8_hvt ad=0.0578 pd=0.695 as=0.109 ps=1.36 w=0.42 l=0.15
X86 a_2858_17455# a_2585_17461# a_2773_17455# VPWR sky130_fd_pr__pfet_01v8_hvt ad=0.0683 pd=0.745 as=0.0578 ps=0.695 w=0.42 l=0.15
X88 a_4571_14013# a_3873_13647# a_4314_13759# VGND sky130_fd_pr__nfet_01v8 ad=0.0684 pd=0.74 as=0.0989 ps=0.995 w=0.36 l=0.15
X89 tdc0.w_dly_sig\[15\] tdc0.w_dly_sig_n\[14\] VGND VGND sky130_fd_pr__nfet_01v8 ad=0.0878 pd=0.92 as=0.169 ps=1.82 w=0.65 l=0.15
X90 _011_ a_13459_8751# VGND VGND sky130_fd_pr__nfet_01v8 ad=0.169 pd=1.82 as=0.101 ps=0.96 w=0.65 l=0.15
X91 VPWR a_7286_7119# clknet_4_3_0_clk VPWR sky130_fd_pr__pfet_01v8_hvt ad=0.14 pd=1.28 as=0.14 ps=1.28 w=1 l=0.15
X92 VPWR tdc0.w_dly_sig\[81\] tdc0.w_dly_sig\[83\] VPWR sky130_fd_pr__pfet_01v8_hvt ad=0.26 pd=2.52 as=0.135 ps=1.27 w=1 l=0.15
X93 a_16578_13103# clknet_0_clk VGND VGND sky130_fd_pr__nfet_01v8 ad=0.0588 pd=0.7 as=0.111 ps=1.37 w=0.42 l=0.15
X95 a_17199_4917# clknet_4_10_0_clk VPWR VPWR sky130_fd_pr__pfet_01v8_hvt ad=0.166 pd=1.8 as=0.0864 ps=0.91 w=0.64 l=0.15
X96 a_17647_12247# a_17743_12247# VPWR VPWR sky130_fd_pr__pfet_01v8_hvt ad=0.27 pd=2.54 as=0.135 ps=1.27 w=1 l=0.15
X97 VPWR a_11122_7637# _029_ VPWR sky130_fd_pr__pfet_01v8_hvt ad=0.135 pd=1.27 as=0.135 ps=1.27 w=1 l=0.15
X98 VGND tdc0.w_dly_sig\[42\] tdc0.w_dly_sig_n\[42\] VGND sky130_fd_pr__nfet_01v8 ad=0.169 pd=1.82 as=0.0878 ps=0.92 w=0.65 l=0.15
X99 VPWR tdc0.w_dly_sig\[12\] tdc0.w_dly_sig_n\[12\] VPWR sky130_fd_pr__pfet_01v8_hvt ad=0.26 pd=2.52 as=0.135 ps=1.27 w=1 l=0.15
X100 VGND a_4774_17429# a_4732_17833# VGND sky130_fd_pr__nfet_01v8 ad=0.121 pd=1.09 as=0.0696 ps=0.765 w=0.42 l=0.15
X101 a_16915_10357# a_17206_10657# a_17157_10749# VPWR sky130_fd_pr__pfet_01v8_hvt ad=0.0567 pd=0.69 as=0.0882 ps=0.84 w=0.42 l=0.15
X102 a_13082_12292# a_12882_12137# a_13231_12381# VGND sky130_fd_pr__nfet_01v8 ad=0.0621 pd=0.705 as=0.0696 ps=0.765 w=0.36 l=0.15
X103 a_10598_14709# a_10391_14709# a_10774_15101# VPWR sky130_fd_pr__pfet_01v8_hvt ad=0.0683 pd=0.745 as=0.0767 ps=0.785 w=0.42 l=0.15
X104 a_17493_9295# tdc0.w_dly_sig\[120\] VGND VGND sky130_fd_pr__nfet_01v8 ad=0.0813 pd=0.83 as=0.109 ps=1.36 w=0.42 l=0.15
X105 VGND tdc0.o_result\[45\] a_10241_17775# VGND sky130_fd_pr__nfet_01v8 ad=0.169 pd=1.82 as=0.0747 ps=0.88 w=0.65 l=0.15
X106 tdc0.w_dly_sig\[116\] tdc0.w_dly_sig_n\[115\] VGND VGND sky130_fd_pr__nfet_01v8 ad=0.0878 pd=0.92 as=0.169 ps=1.82 w=0.65 l=0.15
X107 tdc0.w_dly_sig_n\[73\] tdc0.w_dly_sig_n\[71\] VGND VGND sky130_fd_pr__nfet_01v8 ad=0.0878 pd=0.92 as=0.169 ps=1.82 w=0.65 l=0.15
X108 VPWR a_5786_5055# a_5713_5309# VPWR sky130_fd_pr__pfet_01v8_hvt ad=0.179 pd=1.26 as=0.0767 ps=0.785 w=0.42 l=0.15
X109 a_3509_5487# tdc0.w_dly_sig\[72\] VPWR VPWR sky130_fd_pr__pfet_01v8_hvt ad=0.0578 pd=0.695 as=0.109 ps=1.36 w=0.42 l=0.15
X110 a_10873_16073# tdc0.o_result\[39\] a_10791_16073# VPWR sky130_fd_pr__pfet_01v8_hvt ad=0.135 pd=1.27 as=0.26 ps=2.52 w=1 l=0.15
X111 VPWR _086_ a_14944_12809# VPWR sky130_fd_pr__pfet_01v8_hvt ad=0.395 pd=1.79 as=0.135 ps=1.27 w=1 l=0.15
X112 a_13541_9071# tdc0.o_result\[84\] VGND VGND sky130_fd_pr__nfet_01v8 ad=0.0747 pd=0.88 as=0.169 ps=1.82 w=0.65 l=0.15
X113 VGND tdc0.w_dly_sig\[117\] a_18489_6953# VGND sky130_fd_pr__nfet_01v8 ad=0.109 pd=1.36 as=0.0813 ps=0.83 w=0.42 l=0.15
X114 tdc0.w_dly_sig_n\[104\] tdc0.w_dly_sig_n\[102\] VPWR VPWR sky130_fd_pr__pfet_01v8_hvt ad=0.135 pd=1.27 as=0.26 ps=2.52 w=1 l=0.15
X115 VPWR tdc0.w_dly_sig\[25\] tdc0.w_dly_sig\[27\] VPWR sky130_fd_pr__pfet_01v8_hvt ad=0.26 pd=2.52 as=0.135 ps=1.27 w=1 l=0.15
X116 VPWR clknet_4_4_0_clk a_947_12021# VPWR sky130_fd_pr__pfet_01v8_hvt ad=0.0864 pd=0.91 as=0.166 ps=1.8 w=0.64 l=0.15
X117 a_10527_14735# a_10391_14709# a_10107_14709# VPWR sky130_fd_pr__pfet_01v8_hvt ad=0.109 pd=1.08 as=0.0567 ps=0.69 w=0.42 l=0.15
X118 VPWR a_16155_17687# _047_ VPWR sky130_fd_pr__pfet_01v8_hvt ad=0.155 pd=1.31 as=0.26 ps=2.52 w=1 l=0.15
X119 VPWR a_14783_2223# a_14951_2197# VPWR sky130_fd_pr__pfet_01v8_hvt ad=0.135 pd=1.27 as=0.27 ps=2.54 w=1 l=0.15
X120 a_14592_12809# _005_ a_14676_12809# VPWR sky130_fd_pr__pfet_01v8_hvt ad=0.135 pd=1.27 as=0.135 ps=1.27 w=1 l=0.15
X121 a_15198_13380# a_14991_13321# a_15374_13103# VPWR sky130_fd_pr__pfet_01v8_hvt ad=0.0683 pd=0.745 as=0.0767 ps=0.785 w=0.42 l=0.15
X122 a_16332_9839# _096_ a_16166_10159# VGND sky130_fd_pr__nfet_01v8 ad=0.0878 pd=0.92 as=0.114 ps=1 w=0.65 l=0.15
X123 tdc0.o_result\[98\] a_13479_2197# VGND VGND sky130_fd_pr__nfet_01v8 ad=0.169 pd=1.82 as=0.0878 ps=0.92 w=0.65 l=0.15
X124 VPWR a_2363_10927# a_2531_10901# VPWR sky130_fd_pr__pfet_01v8_hvt ad=0.135 pd=1.27 as=0.27 ps=2.54 w=1 l=0.15
X125 tdc0.w_dly_sig\[4\] tdc0.w_dly_sig_n\[3\] VPWR VPWR sky130_fd_pr__pfet_01v8_hvt ad=0.135 pd=1.27 as=0.26 ps=2.52 w=1 l=0.15
X126 VPWR a_14991_13321# a_14998_13225# VPWR sky130_fd_pr__pfet_01v8_hvt ad=0.0864 pd=0.91 as=0.166 ps=1.8 w=0.64 l=0.15
X127 tdc0.w_dly_sig_n\[49\] tdc0.w_dly_sig_n\[47\] VGND VGND sky130_fd_pr__nfet_01v8 ad=0.0878 pd=0.92 as=0.169 ps=1.82 w=0.65 l=0.15
X128 a_16248_9839# tdc0.o_result\[3\] VPWR VPWR sky130_fd_pr__pfet_01v8_hvt ad=0.135 pd=1.27 as=0.285 ps=2.57 w=1 l=0.15
X129 VPWR tdc0.w_dly_sig\[44\] tdc0.w_dly_sig_n\[44\] VPWR sky130_fd_pr__pfet_01v8_hvt ad=0.26 pd=2.52 as=0.135 ps=1.27 w=1 l=0.15
X130 VGND a_12651_4123# a_12609_3855# VGND sky130_fd_pr__nfet_01v8 ad=0.109 pd=1.36 as=0.066 ps=0.745 w=0.42 l=0.15
X131 a_13990_8573# a_13551_8207# a_13905_8207# VGND sky130_fd_pr__nfet_01v8 ad=0.0621 pd=0.705 as=0.0813 ps=0.83 w=0.36 l=0.15
X132 tdc0.w_dly_sig_n\[1\] tdc0.w_dly_sig\[1\] VPWR VPWR sky130_fd_pr__pfet_01v8_hvt ad=0.135 pd=1.27 as=0.135 ps=1.27 w=1 l=0.15
X133 a_10689_12809# _060_ a_10607_12809# VPWR sky130_fd_pr__pfet_01v8_hvt ad=0.0693 pd=0.75 as=0.109 ps=1.36 w=0.42 l=0.15
X134 a_7274_6397# a_6835_6031# a_7189_6031# VGND sky130_fd_pr__nfet_01v8 ad=0.0621 pd=0.705 as=0.0813 ps=0.83 w=0.36 l=0.15
X135 a_12771_11159# a_12867_11159# VPWR VPWR sky130_fd_pr__pfet_01v8_hvt ad=0.27 pd=2.54 as=0.135 ps=1.27 w=1 l=0.15
X136 a_15127_13481# a_14991_13321# a_14707_13335# VPWR sky130_fd_pr__pfet_01v8_hvt ad=0.109 pd=1.08 as=0.0567 ps=0.69 w=0.42 l=0.15
X137 VPWR net28 a_10321_12015# VPWR sky130_fd_pr__pfet_01v8_hvt ad=0.155 pd=1.31 as=0.16 ps=1.32 w=1 l=0.15
X138 tdc0.w_dly_sig_n\[23\] tdc0.w_dly_sig_n\[21\] VGND VGND sky130_fd_pr__nfet_01v8 ad=0.0878 pd=0.92 as=0.169 ps=1.82 w=0.65 l=0.15
X139 a_15220_8751# _018_ VPWR VPWR sky130_fd_pr__pfet_01v8_hvt ad=0.135 pd=1.27 as=0.175 ps=1.35 w=1 l=0.15
X140 VPWR a_14676_12809# uo_out[2] VPWR sky130_fd_pr__pfet_01v8_hvt ad=0.28 pd=2.56 as=0.135 ps=1.27 w=1 l=0.15
X141 _010_ a_12134_6549# VGND VGND sky130_fd_pr__nfet_01v8 ad=0.0878 pd=0.92 as=0.0878 ps=0.92 w=0.65 l=0.15
X142 a_14546_18365# a_14299_17999# VPWR VPWR sky130_fd_pr__pfet_01v8_hvt ad=0.0767 pd=0.785 as=0.179 ps=1.26 w=0.42 l=0.15
X143 VGND tdc0.w_dly_sig_n\[15\] tdc0.w_dly_sig\[16\] VGND sky130_fd_pr__nfet_01v8 ad=0.169 pd=1.82 as=0.0878 ps=0.92 w=0.65 l=0.15
X144 a_6633_15823# a_6467_15823# VPWR VPWR sky130_fd_pr__pfet_01v8_hvt ad=0.166 pd=1.8 as=0.0864 ps=0.91 w=0.64 l=0.15
X145 tdc0.o_result\[53\] a_4279_10651# VGND VGND sky130_fd_pr__nfet_01v8 ad=0.169 pd=1.82 as=0.0878 ps=0.92 w=0.65 l=0.15
X146 a_2858_17455# a_2419_17461# a_2773_17455# VGND sky130_fd_pr__nfet_01v8 ad=0.0621 pd=0.705 as=0.0813 ps=0.83 w=0.36 l=0.15
X147 a_8481_8457# tdc0.o_result\[44\] a_8399_8457# VPWR sky130_fd_pr__pfet_01v8_hvt ad=0.135 pd=1.27 as=0.26 ps=2.52 w=1 l=0.15
X148 VPWR a_16331_1947# a_16247_2045# VPWR sky130_fd_pr__pfet_01v8_hvt ad=0.111 pd=1.37 as=0.0882 ps=0.84 w=0.42 l=0.15
X149 VPWR _022_ a_7561_13103# VPWR sky130_fd_pr__pfet_01v8_hvt ad=0.155 pd=1.31 as=0.16 ps=1.32 w=1 l=0.15
X151 a_10931_2919# a_11027_2741# VPWR VPWR sky130_fd_pr__pfet_01v8_hvt ad=0.27 pd=2.54 as=0.135 ps=1.27 w=1 l=0.15
X152 a_16823_17973# a_17107_17973# a_17042_17999# VGND sky130_fd_pr__nfet_01v8 ad=0.0684 pd=0.74 as=0.066 ps=0.745 w=0.36 l=0.15
X153 a_14729_15285# a_14563_15285# VGND VGND sky130_fd_pr__nfet_01v8 ad=0.109 pd=1.36 as=0.0567 ps=0.69 w=0.42 l=0.15
X154 net2 a_12999_591# VGND VGND sky130_fd_pr__nfet_01v8 ad=0.0567 pd=0.69 as=0.0683 ps=0.745 w=0.42 l=0.15
X155 a_8302_4765# a_7987_4631# VGND VGND sky130_fd_pr__nfet_01v8 ad=0.066 pd=0.745 as=0.109 ps=1.36 w=0.42 l=0.15
X156 VPWR a_12518_7119# _012_ VPWR sky130_fd_pr__pfet_01v8_hvt ad=0.135 pd=1.27 as=0.135 ps=1.27 w=1 l=0.15
X157 a_13705_11305# a_13151_11145# a_13358_11204# VGND sky130_fd_pr__nfet_01v8 ad=0.0813 pd=0.83 as=0.0621 ps=0.705 w=0.36 l=0.15
X158 VGND a_18326_4676# a_18255_4777# VGND sky130_fd_pr__nfet_01v8 ad=0.121 pd=1.09 as=0.0989 ps=0.995 w=0.64 l=0.15
X159 tdc0.o_result\[59\] a_7223_10901# VPWR VPWR sky130_fd_pr__pfet_01v8_hvt ad=0.26 pd=2.52 as=0.135 ps=1.27 w=1 l=0.15
X161 VGND clknet_0_clk a_14664_6005# VGND sky130_fd_pr__nfet_01v8 ad=0.111 pd=1.37 as=0.0588 ps=0.7 w=0.42 l=0.15
X162 a_8941_6031# tdc0.o_result\[108\] VGND VGND sky130_fd_pr__nfet_01v8 ad=0.0747 pd=0.88 as=0.169 ps=1.82 w=0.65 l=0.15
X163 a_8565_15823# a_8399_15823# VGND VGND sky130_fd_pr__nfet_01v8 ad=0.109 pd=1.36 as=0.0567 ps=0.69 w=0.42 l=0.15
X165 a_13809_14197# a_13643_14197# VPWR VPWR sky130_fd_pr__pfet_01v8_hvt ad=0.166 pd=1.8 as=0.0864 ps=0.91 w=0.64 l=0.15
X166 a_7783_6397# a_7001_6031# a_7699_6397# VPWR sky130_fd_pr__pfet_01v8_hvt ad=0.0882 pd=0.84 as=0.0567 ps=0.69 w=0.42 l=0.15
X167 a_11957_12393# a_11410_12137# a_11610_12292# VPWR sky130_fd_pr__pfet_01v8_hvt ad=0.0578 pd=0.695 as=0.0683 ps=0.745 w=0.42 l=0.15
X169 a_18255_4777# a_18126_4521# a_17835_4631# VGND sky130_fd_pr__nfet_01v8 ad=0.0989 pd=0.995 as=0.0684 ps=0.74 w=0.36 l=0.15
X171 tdc0.w_dly_sig\[35\] tdc0.w_dly_sig\[33\] VGND VGND sky130_fd_pr__nfet_01v8 ad=0.0878 pd=0.92 as=0.169 ps=1.82 w=0.65 l=0.15
X172 tdc0.o_result\[12\] a_14675_14165# VPWR VPWR sky130_fd_pr__pfet_01v8_hvt ad=0.26 pd=2.52 as=0.135 ps=1.27 w=1 l=0.15
X173 VPWR a_15162_5095# _086_ VPWR sky130_fd_pr__pfet_01v8_hvt ad=0.148 pd=1.34 as=0.27 ps=2.54 w=1 l=0.15
X174 a_14163_17973# clknet_4_13_0_clk VPWR VPWR sky130_fd_pr__pfet_01v8_hvt ad=0.166 pd=1.8 as=0.0864 ps=0.91 w=0.64 l=0.15
X175 tdc0.w_dly_sig\[114\] tdc0.w_dly_sig_n\[113\] VPWR VPWR sky130_fd_pr__pfet_01v8_hvt ad=0.135 pd=1.27 as=0.26 ps=2.52 w=1 l=0.15
X176 VGND tdc0.w_dly_sig\[102\] tdc0.w_dly_sig\[104\] VGND sky130_fd_pr__nfet_01v8 ad=0.169 pd=1.82 as=0.0878 ps=0.92 w=0.65 l=0.15
X177 tdc0.w_dly_sig\[52\] tdc0.w_dly_sig\[50\] VGND VGND sky130_fd_pr__nfet_01v8 ad=0.0878 pd=0.92 as=0.169 ps=1.82 w=0.65 l=0.15
X178 VPWR tdc0.w_dly_sig_n\[119\] tdc0.w_dly_sig\[120\] VPWR sky130_fd_pr__pfet_01v8_hvt ad=0.26 pd=2.52 as=0.135 ps=1.27 w=1 l=0.15
X179 clknet_4_0_0_clk a_4176_6005# VPWR VPWR sky130_fd_pr__pfet_01v8_hvt ad=0.14 pd=1.28 as=0.14 ps=1.28 w=1 l=0.15
X180 a_9503_11043# _035_ VGND VGND sky130_fd_pr__nfet_01v8 ad=0.0693 pd=0.75 as=0.109 ps=1.36 w=0.42 l=0.15
X181 VPWR a_11610_12292# a_11539_12393# VPWR sky130_fd_pr__pfet_01v8_hvt ad=0.179 pd=1.26 as=0.109 ps=1.08 w=0.75 l=0.15
X182 tdc0.w_dly_sig_n\[58\] tdc0.w_dly_sig_n\[56\] VGND VGND sky130_fd_pr__nfet_01v8 ad=0.0878 pd=0.92 as=0.169 ps=1.82 w=0.65 l=0.15
X183 VGND a_4923_1947# a_4881_1679# VGND sky130_fd_pr__nfet_01v8 ad=0.109 pd=1.36 as=0.066 ps=0.745 w=0.42 l=0.15
X185 _046_ a_11987_10633# VGND VGND sky130_fd_pr__nfet_01v8 ad=0.176 pd=1.84 as=0.102 ps=0.99 w=0.65 l=0.15
X186 a_4237_17999# a_3247_17999# a_4111_18365# VGND sky130_fd_pr__nfet_01v8 ad=0.066 pd=0.745 as=0.0684 ps=0.74 w=0.36 l=0.15
X188 VPWR net3 a_9779_6575# VPWR sky130_fd_pr__pfet_01v8_hvt ad=0.135 pd=1.27 as=0.26 ps=2.52 w=1 l=0.15
X189 tdc0.w_dly_sig_n\[123\] tdc0.w_dly_sig\[123\] VGND VGND sky130_fd_pr__nfet_01v8 ad=0.0878 pd=0.92 as=0.169 ps=1.82 w=0.65 l=0.15
X190 a_5169_9545# tdc0.o_result\[70\] VPWR VPWR sky130_fd_pr__pfet_01v8_hvt ad=0.16 pd=1.32 as=0.253 ps=2.52 w=1 l=0.15
X191 a_2087_9839# a_1223_9845# a_1830_9813# VPWR sky130_fd_pr__pfet_01v8_hvt ad=0.0567 pd=0.69 as=0.109 ps=1.08 w=0.42 l=0.15
X192 VGND clknet_4_8_0_clk a_12447_2229# VGND sky130_fd_pr__nfet_01v8 ad=0.0567 pd=0.69 as=0.109 ps=1.36 w=0.42 l=0.15
X193 tdc0.w_dly_sig_n\[99\] tdc0.w_dly_sig_n\[97\] VPWR VPWR sky130_fd_pr__pfet_01v8_hvt ad=0.135 pd=1.27 as=0.26 ps=2.52 w=1 l=0.15
X194 a_3593_12335# tdc0.o_result\[50\] a_3247_12015# VGND sky130_fd_pr__nfet_01v8 ad=0.114 pd=1 as=0.169 ps=1.82 w=0.65 l=0.15
X196 uo_out[5] a_11456_10927# VPWR VPWR sky130_fd_pr__pfet_01v8_hvt ad=0.135 pd=1.27 as=0.135 ps=1.27 w=1 l=0.15
X197 a_8872_17833# a_8473_17461# a_8746_17455# VGND sky130_fd_pr__nfet_01v8 ad=0.0696 pd=0.765 as=0.0621 ps=0.705 w=0.36 l=0.15
X198 tdc0.w_dly_sig\[99\] tdc0.w_dly_sig\[97\] VPWR VPWR sky130_fd_pr__pfet_01v8_hvt ad=0.135 pd=1.27 as=0.26 ps=2.52 w=1 l=0.15
X199 a_5713_5309# a_5179_4943# a_5618_5309# VPWR sky130_fd_pr__pfet_01v8_hvt ad=0.0767 pd=0.785 as=0.0683 ps=0.745 w=0.42 l=0.15
X200 a_2363_10927# a_1499_10933# a_2106_10901# VPWR sky130_fd_pr__pfet_01v8_hvt ad=0.0567 pd=0.69 as=0.109 ps=1.08 w=0.42 l=0.15
X201 a_14121_18365# a_13783_18151# VPWR VPWR sky130_fd_pr__pfet_01v8_hvt ad=0.0882 pd=0.84 as=0.111 ps=1.37 w=0.42 l=0.15
X202 VGND a_11610_13380# a_11539_13481# VGND sky130_fd_pr__nfet_01v8 ad=0.121 pd=1.09 as=0.0989 ps=0.995 w=0.64 l=0.15
X203 clknet_4_2_0_clk a_8500_4917# VPWR VPWR sky130_fd_pr__pfet_01v8_hvt ad=0.14 pd=1.28 as=0.14 ps=1.28 w=1 l=0.15
X204 VGND clknet_0_clk a_14388_13621# VGND sky130_fd_pr__nfet_01v8 ad=0.111 pd=1.37 as=0.0588 ps=0.7 w=0.42 l=0.15
X205 _091_ a_6835_12809# VGND VGND sky130_fd_pr__nfet_01v8 ad=0.176 pd=1.84 as=0.102 ps=0.99 w=0.65 l=0.15
X206 VGND tdc0.w_dly_sig\[124\] a_18121_13647# VGND sky130_fd_pr__nfet_01v8 ad=0.109 pd=1.36 as=0.0813 ps=0.83 w=0.42 l=0.15
X207 a_9834_3285# a_9666_3311# VGND VGND sky130_fd_pr__nfet_01v8 ad=0.0989 pd=0.995 as=0.121 ps=1.09 w=0.64 l=0.15
X208 a_4314_5055# a_4146_5309# VGND VGND sky130_fd_pr__nfet_01v8 ad=0.0989 pd=0.995 as=0.121 ps=1.09 w=0.64 l=0.15
X209 VGND tdc0.w_dly_sig\[6\] tdc0.w_dly_sig_n\[6\] VGND sky130_fd_pr__nfet_01v8 ad=0.169 pd=1.82 as=0.0878 ps=0.92 w=0.65 l=0.15
X210 VGND tdc0.w_dly_sig_n\[43\] tdc0.w_dly_sig_n\[45\] VGND sky130_fd_pr__nfet_01v8 ad=0.169 pd=1.82 as=0.0878 ps=0.92 w=0.65 l=0.15
X211 a_17283_16599# a_17567_16585# a_17502_16733# VGND sky130_fd_pr__nfet_01v8 ad=0.0684 pd=0.74 as=0.066 ps=0.745 w=0.36 l=0.15
X212 a_9319_12015# _013_ a_9401_12015# VPWR sky130_fd_pr__pfet_01v8_hvt ad=0.253 pd=2.52 as=0.135 ps=1.27 w=1 l=0.15
X213 tdc0.w_dly_sig_n\[0\] net1 VPWR VPWR sky130_fd_pr__pfet_01v8_hvt ad=0.135 pd=1.27 as=0.135 ps=1.27 w=1 l=0.15
X214 VGND tdc0.w_dly_sig_n\[61\] tdc0.w_dly_sig_n\[63\] VGND sky130_fd_pr__nfet_01v8 ad=0.169 pd=1.82 as=0.0878 ps=0.92 w=0.65 l=0.15
X215 tdc0.w_dly_sig_n\[23\] tdc0.w_dly_sig\[23\] VGND VGND sky130_fd_pr__nfet_01v8 ad=0.0878 pd=0.92 as=0.169 ps=1.82 w=0.65 l=0.15
X216 a_14358_2223# a_14085_2229# a_14273_2223# VPWR sky130_fd_pr__pfet_01v8_hvt ad=0.0683 pd=0.745 as=0.0578 ps=0.695 w=0.42 l=0.15
X217 a_6169_5807# tdc0.o_result\[83\] a_5823_5487# VGND sky130_fd_pr__nfet_01v8 ad=0.114 pd=1 as=0.169 ps=1.82 w=0.65 l=0.15
X218 VPWR a_7423_2223# a_7591_2197# VPWR sky130_fd_pr__pfet_01v8_hvt ad=0.135 pd=1.27 as=0.27 ps=2.54 w=1 l=0.15
X219 _033_ a_9595_11721# VGND VGND sky130_fd_pr__nfet_01v8 ad=0.169 pd=1.82 as=0.101 ps=0.96 w=0.65 l=0.15
X220 a_5993_13647# tdc0.w_dly_sig\[37\] VGND VGND sky130_fd_pr__nfet_01v8 ad=0.0813 pd=0.83 as=0.109 ps=1.36 w=0.42 l=0.15
X221 a_7423_2223# a_6725_2229# a_7166_2197# VGND sky130_fd_pr__nfet_01v8 ad=0.0684 pd=0.74 as=0.0989 ps=0.995 w=0.36 l=0.15
X222 a_2033_10927# a_1499_10933# a_1938_10927# VPWR sky130_fd_pr__pfet_01v8_hvt ad=0.0767 pd=0.785 as=0.0683 ps=0.745 w=0.42 l=0.15
X223 a_13817_9295# tdc0.o_result\[60\] VGND VGND sky130_fd_pr__nfet_01v8 ad=0.0747 pd=0.88 as=0.169 ps=1.82 w=0.65 l=0.15
X224 a_4701_17455# a_4167_17461# a_4606_17455# VPWR sky130_fd_pr__pfet_01v8_hvt ad=0.0767 pd=0.785 as=0.0683 ps=0.745 w=0.42 l=0.15
X225 tdc0.w_dly_sig\[23\] tdc0.w_dly_sig_n\[22\] VGND VGND sky130_fd_pr__nfet_01v8 ad=0.0878 pd=0.92 as=0.169 ps=1.82 w=0.65 l=0.15
X226 VGND _000_ _019_ VGND sky130_fd_pr__nfet_01v8 ad=0.0878 pd=0.92 as=0.0878 ps=0.92 w=0.65 l=0.15
X227 a_4314_13759# a_4146_14013# VPWR VPWR sky130_fd_pr__pfet_01v8_hvt ad=0.109 pd=1.08 as=0.179 ps=1.26 w=0.75 l=0.15
X228 VPWR clknet_4_13_0_clk a_14563_15285# VPWR sky130_fd_pr__pfet_01v8_hvt ad=0.0864 pd=0.91 as=0.166 ps=1.8 w=0.64 l=0.15
X229 VPWR _037_ a_11685_10633# VPWR sky130_fd_pr__pfet_01v8_hvt ad=0.148 pd=1.34 as=0.0693 ps=0.75 w=0.42 l=0.15
X230 tdc0.w_dly_sig\[33\] tdc0.w_dly_sig_n\[32\] VPWR VPWR sky130_fd_pr__pfet_01v8_hvt ad=0.135 pd=1.27 as=0.26 ps=2.52 w=1 l=0.15
X231 _037_ a_10239_10633# VGND VGND sky130_fd_pr__nfet_01v8 ad=0.169 pd=1.82 as=0.101 ps=0.96 w=0.65 l=0.15
X232 a_3686_10749# a_3413_10383# a_3601_10383# VPWR sky130_fd_pr__pfet_01v8_hvt ad=0.0683 pd=0.745 as=0.0578 ps=0.695 w=0.42 l=0.15
X233 a_7139_10927# a_6357_10933# a_7055_10927# VPWR sky130_fd_pr__pfet_01v8_hvt ad=0.0882 pd=0.84 as=0.0567 ps=0.69 w=0.42 l=0.15
X234 a_11582_1791# a_11414_2045# VPWR VPWR sky130_fd_pr__pfet_01v8_hvt ad=0.109 pd=1.08 as=0.179 ps=1.26 w=0.75 l=0.15
X236 a_12376_8751# _051_ a_12644_8751# VPWR sky130_fd_pr__pfet_01v8_hvt ad=0.135 pd=1.27 as=0.135 ps=1.27 w=1 l=0.15
X237 a_6906_16189# a_6467_15823# a_6821_15823# VGND sky130_fd_pr__nfet_01v8 ad=0.0621 pd=0.705 as=0.0813 ps=0.83 w=0.36 l=0.15
X238 VGND tdc0.w_dly_sig_n\[76\] tdc0.w_dly_sig\[77\] VGND sky130_fd_pr__nfet_01v8 ad=0.169 pd=1.82 as=0.0878 ps=0.92 w=0.65 l=0.15
X239 a_14370_17973# a_14163_17973# a_14546_18365# VPWR sky130_fd_pr__pfet_01v8_hvt ad=0.0683 pd=0.745 as=0.0767 ps=0.785 w=0.42 l=0.15
X240 a_2125_3317# a_1959_3317# VPWR VPWR sky130_fd_pr__pfet_01v8_hvt ad=0.166 pd=1.8 as=0.0864 ps=0.91 w=0.64 l=0.15
X241 clknet_4_10_0_clk a_16412_6549# VGND VGND sky130_fd_pr__nfet_01v8 ad=0.0588 pd=0.7 as=0.0588 ps=0.7 w=0.42 l=0.15
X242 a_7198_17821# a_6883_17687# VGND VGND sky130_fd_pr__nfet_01v8 ad=0.066 pd=0.745 as=0.109 ps=1.36 w=0.42 l=0.15
X243 VPWR tdc0.w_dly_sig\[106\] tdc0.w_dly_sig_n\[106\] VPWR sky130_fd_pr__pfet_01v8_hvt ad=0.26 pd=2.52 as=0.135 ps=1.27 w=1 l=0.15
X244 a_7400_6031# a_7001_6031# a_7274_6397# VGND sky130_fd_pr__nfet_01v8 ad=0.0696 pd=0.765 as=0.0621 ps=0.705 w=0.36 l=0.15
X245 VGND tdc0.w_dly_sig_n\[95\] tdc0.w_dly_sig_n\[97\] VGND sky130_fd_pr__nfet_01v8 ad=0.169 pd=1.82 as=0.0878 ps=0.92 w=0.65 l=0.15
X246 VGND tdc0.w_dly_sig_n\[98\] tdc0.w_dly_sig\[99\] VGND sky130_fd_pr__nfet_01v8 ad=0.169 pd=1.82 as=0.0878 ps=0.92 w=0.65 l=0.15
X247 VGND tdc0.w_dly_sig\[63\] tdc0.w_dly_sig\[65\] VGND sky130_fd_pr__nfet_01v8 ad=0.169 pd=1.82 as=0.0878 ps=0.92 w=0.65 l=0.15
X248 a_15465_10383# a_15299_10383# VGND VGND sky130_fd_pr__nfet_01v8 ad=0.109 pd=1.36 as=0.0567 ps=0.69 w=0.42 l=0.15
X249 a_9959_10633# _016_ a_9741_10357# VPWR sky130_fd_pr__pfet_01v8_hvt ad=0.138 pd=1.27 as=0.26 ps=2.52 w=1 l=0.15
X250 VGND tdc0.w_dly_sig\[16\] tdc0.w_dly_sig\[18\] VGND sky130_fd_pr__nfet_01v8 ad=0.169 pd=1.82 as=0.0878 ps=0.92 w=0.65 l=0.15
X251 a_11473_4943# _001_ a_11359_4943# VGND sky130_fd_pr__nfet_01v8 ad=0.0878 pd=0.92 as=0.137 ps=1.07 w=0.65 l=0.15
X252 VPWR clknet_4_1_0_clk a_1591_8757# VPWR sky130_fd_pr__pfet_01v8_hvt ad=0.0864 pd=0.91 as=0.166 ps=1.8 w=0.64 l=0.15
X253 VPWR a_17567_17673# a_17574_17577# VPWR sky130_fd_pr__pfet_01v8_hvt ad=0.0864 pd=0.91 as=0.166 ps=1.8 w=0.64 l=0.15
X254 VPWR clknet_4_4_0_clk a_3431_10933# VPWR sky130_fd_pr__pfet_01v8_hvt ad=0.0864 pd=0.91 as=0.166 ps=1.8 w=0.64 l=0.15
X255 VPWR _006_ a_14195_7663# VPWR sky130_fd_pr__pfet_01v8_hvt ad=0.162 pd=1.33 as=0.265 ps=2.53 w=1 l=0.15
X256 VPWR _015_ a_11609_4399# VPWR sky130_fd_pr__pfet_01v8_hvt ad=0.155 pd=1.31 as=0.16 ps=1.32 w=1 l=0.15
X257 VPWR tdc0.w_dly_sig_n\[91\] tdc0.w_dly_sig\[92\] VPWR sky130_fd_pr__pfet_01v8_hvt ad=0.26 pd=2.52 as=0.135 ps=1.27 w=1 l=0.15
X258 a_11057_17455# tdc0.o_result\[47\] a_10975_17455# VPWR sky130_fd_pr__pfet_01v8_hvt ad=0.135 pd=1.27 as=0.26 ps=2.52 w=1 l=0.15
X259 a_8201_12015# tdc0.w_dly_sig\[64\] VPWR VPWR sky130_fd_pr__pfet_01v8_hvt ad=0.0578 pd=0.695 as=0.109 ps=1.36 w=0.42 l=0.15