* PEX produced on Sun Mar 17 01:30:16 PM CET 2024 using /foss/tools/osic-multitool/iic-pex.sh with m=1 and s=1
* NGSPICE file created from tt_um_hpretl_tt06_tdc_v1.ext - technology: sky130A

.subckt tt_um_hpretl_tt06_tdc_v1 clk ena rst_n ui_in[1] ui_in[2] ui_in[5] ui_in[7]
+ uio_in[0] uio_in[1] uio_in[2] uio_in[3] uio_in[4] uio_in[5] uio_in[6] uio_in[7]
+ uio_oe[1] uio_oe[2] uio_oe[5] uio_oe[7] uio_out[0] uio_out[3] uio_out[7] uo_out[1]
+ uo_out[2] uo_out[3] uo_out[5] uo_out[6] ui_in[0] ui_in[4] ui_in[6] uio_out[2] uio_out[5]
+ uio_oe[4] uio_oe[0] uo_out[0] uo_out[4] uio_out[4] ui_in[3] uio_out[1] uio_out[6]
+ uo_out[7] uio_oe[6] uio_oe[3] VPWR VGND
X0 a_23315_17833# a_23179_17673# a_22895_17687# VPWR sky130_fd_pr__pfet_01v8_hvt ad=0.109 pd=1.08 as=0.0567 ps=0.69 w=0.42 l=0.15
X1 _051_ a_20359_3855# VGND VGND sky130_fd_pr__nfet_01v8 ad=0.0878 pd=0.92 as=0.097 ps=0.975 w=0.65 l=0.15
X2 tdc0.w_dly_sig[61] tdc0.w_dly_sig_n[60] VGND VGND sky130_fd_pr__nfet_01v8 ad=0.0878 pd=0.92 as=0.169 ps=1.82 w=0.65 l=0.15
X3 a_25529_2045# a_25191_1831# VPWR VPWR sky130_fd_pr__pfet_01v8_hvt ad=0.0882 pd=0.84 as=0.111 ps=1.37 w=0.42 l=0.15
X5 VPWR tdc0.w_dly_sig_n[177] tdc0.w_dly_sig[179] VPWR sky130_fd_pr__pfet_01v8_hvt ad=0.26 pd=2.52 as=0.135 ps=1.27 w=1 l=0.15
X6 clknet_4_0_0_clk a_6476_6549# VPWR VPWR sky130_fd_pr__pfet_01v8_hvt ad=0.14 pd=1.28 as=0.14 ps=1.28 w=1 l=0.15
X7 VPWR _022_ a_13997_7637# VPWR sky130_fd_pr__pfet_01v8_hvt ad=0.118 pd=1.4 as=0.0567 ps=0.69 w=0.42 l=0.15
X8 a_22261_17833# a_21714_17577# a_21914_17732# VPWR sky130_fd_pr__pfet_01v8_hvt ad=0.0578 pd=0.695 as=0.0683 ps=0.745 w=0.42 l=0.15
X9 a_11046_5309# a_10607_4943# a_10961_4943# VGND sky130_fd_pr__nfet_01v8 ad=0.0621 pd=0.705 as=0.0813 ps=0.83 w=0.36 l=0.15
X10 VGND tdc0.w_dly_sig[92] tdc0.w_dly_sig_n[93] VGND sky130_fd_pr__nfet_01v8 ad=0.169 pd=1.82 as=0.0878 ps=0.92 w=0.65 l=0.15
X11 tdc0.w_dly_sig_n[78] tdc0.w_dly_sig[78] VPWR VPWR sky130_fd_pr__pfet_01v8_hvt ad=0.135 pd=1.27 as=0.26 ps=2.52 w=1 l=0.15
X12 a_19855_7895# _076_ VPWR VPWR sky130_fd_pr__pfet_01v8_hvt ad=0.0662 pd=0.735 as=0.142 ps=1.34 w=0.42 l=0.15
X13 VGND a_10351_9813# a_10309_10217# VGND sky130_fd_pr__nfet_01v8 ad=0.109 pd=1.36 as=0.066 ps=0.745 w=0.42 l=0.15
X14 a_23053_14557# _035_ VGND VGND sky130_fd_pr__nfet_01v8 ad=0.0441 pd=0.63 as=0.132 ps=1.14 w=0.42 l=0.15
X16 VGND a_22971_957# a_23139_859# VGND sky130_fd_pr__nfet_01v8 ad=0.0878 pd=0.92 as=0.169 ps=1.82 w=0.65 l=0.15
X17 a_13809_17461# a_13643_17461# VGND VGND sky130_fd_pr__nfet_01v8 ad=0.109 pd=1.36 as=0.0567 ps=0.69 w=0.42 l=0.15
X18 VPWR _054_ a_20945_13675# VPWR sky130_fd_pr__pfet_01v8_hvt ad=0.167 pd=1.39 as=0.0567 ps=0.69 w=0.42 l=0.15
X19 a_21718_5487# a_21279_5493# a_21633_5487# VGND sky130_fd_pr__nfet_01v8 ad=0.0621 pd=0.705 as=0.0813 ps=0.83 w=0.36 l=0.15
X20 VGND tdc0.w_dly_sig[81] tdc0.w_dly_sig_n[82] VGND sky130_fd_pr__nfet_01v8 ad=0.169 pd=1.82 as=0.0878 ps=0.92 w=0.65 l=0.15
X21 VPWR a_9263_14013# a_9431_13915# VPWR sky130_fd_pr__pfet_01v8_hvt ad=0.135 pd=1.27 as=0.27 ps=2.54 w=1 l=0.15
X22 tdc0.w_dly_sig[123] tdc0.w_dly_sig_n[121] VGND VGND sky130_fd_pr__nfet_01v8 ad=0.0878 pd=0.92 as=0.169 ps=1.82 w=0.65 l=0.15
X23 tdc0.o_result[74] a_13019_11739# VPWR VPWR sky130_fd_pr__pfet_01v8_hvt ad=0.26 pd=2.52 as=0.135 ps=1.27 w=1 l=0.15
X26 VPWR a_8454_7637# a_8381_7663# VPWR sky130_fd_pr__pfet_01v8_hvt ad=0.179 pd=1.26 as=0.0767 ps=0.785 w=0.42 l=0.15
X27 a_16210_9839# clk VGND VGND sky130_fd_pr__nfet_01v8 ad=0.0588 pd=0.7 as=0.111 ps=1.37 w=0.42 l=0.15
X29 a_23457_8207# _010_ a_23385_8207# VGND sky130_fd_pr__nfet_01v8 ad=0.0441 pd=0.63 as=0.0441 ps=0.63 w=0.42 l=0.15
X30 a_10221_14735# a_10055_14735# VPWR VPWR sky130_fd_pr__pfet_01v8_hvt ad=0.166 pd=1.8 as=0.0864 ps=0.91 w=0.64 l=0.15
X31 a_15236_6575# _031_ VPWR VPWR sky130_fd_pr__pfet_01v8_hvt ad=0.29 pd=2.58 as=0.135 ps=1.27 w=1 l=0.15
X33 _013_ a_15530_6077# VGND VGND sky130_fd_pr__nfet_01v8 ad=0.221 pd=1.98 as=0.0878 ps=0.92 w=0.65 l=0.15
X34 VPWR tdc0.w_dly_sig[17] a_29099_6575# VPWR sky130_fd_pr__pfet_01v8_hvt ad=0.115 pd=1.08 as=0.205 ps=2.1 w=0.79 l=0.15
X35 a_13035_5487# a_12171_5493# a_12778_5461# VPWR sky130_fd_pr__pfet_01v8_hvt ad=0.0567 pd=0.69 as=0.109 ps=1.08 w=0.42 l=0.15
X36 a_13866_9545# _178_ a_13552_9545# VPWR sky130_fd_pr__pfet_01v8_hvt ad=0.18 pd=1.36 as=0.28 ps=1.56 w=1 l=0.15
X37 tdc0.w_dly_sig_n[48] tdc0.w_dly_sig[47] VPWR VPWR sky130_fd_pr__pfet_01v8_hvt ad=0.135 pd=1.27 as=0.26 ps=2.52 w=1 l=0.15
X38 a_29541_12559# a_29375_12559# VGND VGND sky130_fd_pr__nfet_01v8 ad=0.109 pd=1.36 as=0.0567 ps=0.69 w=0.42 l=0.15
X40 tdc0.w_dly_sig[13] tdc0.w_dly_sig_n[12] VPWR VPWR sky130_fd_pr__pfet_01v8_hvt ad=0.135 pd=1.27 as=0.26 ps=2.52 w=1 l=0.15
X42 tdc0.w_dly_sig_n[75] tdc0.w_dly_sig[75] VGND VGND sky130_fd_pr__nfet_01v8 ad=0.0878 pd=0.92 as=0.169 ps=1.82 w=0.65 l=0.15
X43 VPWR a_11260_5461# clknet_4_2_0_clk VPWR sky130_fd_pr__pfet_01v8_hvt ad=0.14 pd=1.28 as=0.14 ps=1.28 w=1 l=0.15
X44 VPWR a_11766_18517# a_11693_18543# VPWR sky130_fd_pr__pfet_01v8_hvt ad=0.179 pd=1.26 as=0.0767 ps=0.785 w=0.42 l=0.15
X45 VPWR a_12134_15253# a_12061_15279# VPWR sky130_fd_pr__pfet_01v8_hvt ad=0.179 pd=1.26 as=0.0767 ps=0.785 w=0.42 l=0.15
X46 net2 a_15575_591# VPWR VPWR sky130_fd_pr__pfet_01v8_hvt ad=0.135 pd=1.27 as=0.162 ps=1.33 w=1 l=0.15
X47 a_22178_17277# a_21739_16911# a_22093_16911# VGND sky130_fd_pr__nfet_01v8 ad=0.0621 pd=0.705 as=0.0813 ps=0.83 w=0.36 l=0.15
X48 tdc0.w_dly_sig_n[17] tdc0.w_dly_sig[17] VPWR VPWR sky130_fd_pr__pfet_01v8_hvt ad=0.135 pd=1.27 as=0.26 ps=2.52 w=1 l=0.15
X49 VGND tdc0.w_dly_sig[13] tdc0.w_dly_sig_n[14] VGND sky130_fd_pr__nfet_01v8 ad=0.169 pd=1.82 as=0.0878 ps=0.92 w=0.65 l=0.15
X51 _054_ a_17139_8759# VGND VGND sky130_fd_pr__nfet_01v8 ad=0.0878 pd=0.92 as=0.097 ps=0.975 w=0.65 l=0.15
X52 VPWR clknet_4_2_0_clk a_13551_2767# VPWR sky130_fd_pr__pfet_01v8_hvt ad=0.0864 pd=0.91 as=0.166 ps=1.8 w=0.64 l=0.15
X53 VPWR a_13955_2223# a_14123_2197# VPWR sky130_fd_pr__pfet_01v8_hvt ad=0.135 pd=1.27 as=0.27 ps=2.54 w=1 l=0.15
X54 a_11237_9295# tdc0.w_dly_sig[74] VPWR VPWR sky130_fd_pr__pfet_01v8_hvt ad=0.0578 pd=0.695 as=0.109 ps=1.36 w=0.42 l=0.15
X55 a_19255_12335# _190_ VGND VGND sky130_fd_pr__nfet_01v8 ad=0.169 pd=1.82 as=0.0878 ps=0.92 w=0.65 l=0.15
X56 tdc0.w_dly_sig[184] tdc0.w_dly_sig_n[183] VPWR VPWR sky130_fd_pr__pfet_01v8_hvt ad=0.135 pd=1.27 as=0.26 ps=2.52 w=1 l=0.15
X57 tdc0.w_dly_sig_n[62] tdc0.w_dly_sig[62] VGND VGND sky130_fd_pr__nfet_01v8 ad=0.0878 pd=0.92 as=0.169 ps=1.82 w=0.65 l=0.15
X58 VGND _058_ a_22445_14557# VGND sky130_fd_pr__nfet_01v8 ad=0.132 pd=1.14 as=0.0441 ps=0.63 w=0.42 l=0.15
X59 tdc0.o_result[165] a_12651_2197# VGND VGND sky130_fd_pr__nfet_01v8 ad=0.169 pd=1.82 as=0.0878 ps=0.92 w=0.65 l=0.15
X60 a_23999_4917# a_24290_5217# a_24241_5309# VPWR sky130_fd_pr__pfet_01v8_hvt ad=0.0567 pd=0.69 as=0.0882 ps=0.84 w=0.42 l=0.15
X61 VGND a_24490_4917# a_24419_4943# VGND sky130_fd_pr__nfet_01v8 ad=0.121 pd=1.09 as=0.0989 ps=0.995 w=0.64 l=0.15
X62 VPWR tdc0.w_dly_sig_n[60] tdc0.w_dly_sig[62] VPWR sky130_fd_pr__pfet_01v8_hvt ad=0.26 pd=2.52 as=0.135 ps=1.27 w=1 l=0.15
X63 a_21886_5461# a_21718_5487# VPWR VPWR sky130_fd_pr__pfet_01v8_hvt ad=0.109 pd=1.08 as=0.179 ps=1.26 w=0.75 l=0.15
X64 a_16373_13647# _001_ a_16301_13647# VGND sky130_fd_pr__nfet_01v8 ad=0.0441 pd=0.63 as=0.0441 ps=0.63 w=0.42 l=0.15
X65 a_19433_12809# _205_ a_19337_12809# VPWR sky130_fd_pr__pfet_01v8_hvt ad=0.0441 pd=0.63 as=0.0693 ps=0.75 w=0.42 l=0.15
X66 VPWR a_20881_11721# uo_out[0] VPWR sky130_fd_pr__pfet_01v8_hvt ad=0.135 pd=1.27 as=0.135 ps=1.27 w=1 l=0.15
X67 a_25138_3855# a_24823_4007# VGND VGND sky130_fd_pr__nfet_01v8 ad=0.066 pd=0.745 as=0.109 ps=1.36 w=0.42 l=0.15
X68 tdc0.o_result[81] a_10903_12827# VGND VGND sky130_fd_pr__nfet_01v8 ad=0.169 pd=1.82 as=0.0878 ps=0.92 w=0.65 l=0.15
X71 VPWR net3 a_15203_5309# VPWR sky130_fd_pr__pfet_01v8_hvt ad=0.228 pd=1.74 as=0.0609 ps=0.71 w=0.42 l=0.15
X72 tdc0.w_dly_sig_n[103] tdc0.w_dly_sig[103] VPWR VPWR sky130_fd_pr__pfet_01v8_hvt ad=0.135 pd=1.27 as=0.26 ps=2.52 w=1 l=0.15
X73 a_13551_11721# _085_ a_13633_11471# VGND sky130_fd_pr__nfet_01v8 ad=0.169 pd=1.82 as=0.0747 ps=0.88 w=0.65 l=0.15
X74 tdc0.w_dly_sig_n[149] tdc0.w_dly_sig[148] VPWR VPWR sky130_fd_pr__pfet_01v8_hvt ad=0.135 pd=1.27 as=0.26 ps=2.52 w=1 l=0.15
X75 VGND tdc0.w_dly_sig_n[84] tdc0.w_dly_sig[86] VGND sky130_fd_pr__nfet_01v8 ad=0.169 pd=1.82 as=0.0878 ps=0.92 w=0.65 l=0.15
X76 tdc0.o_result[86] a_14675_15253# VPWR VPWR sky130_fd_pr__pfet_01v8_hvt ad=0.26 pd=2.52 as=0.135 ps=1.27 w=1 l=0.15
X77 VPWR tdc0.w_dly_sig[170] tdc0.w_dly_sig_n[170] VPWR sky130_fd_pr__pfet_01v8_hvt ad=0.26 pd=2.52 as=0.135 ps=1.27 w=1 l=0.15
X78 a_30343_11471# a_30123_11471# VGND VGND sky130_fd_pr__nfet_01v8 ad=0.0696 pd=0.765 as=0.121 ps=1.09 w=0.42 l=0.15
X79 tdc0.o_result[68] a_20563_14165# VGND VGND sky130_fd_pr__nfet_01v8 ad=0.169 pd=1.82 as=0.0878 ps=0.92 w=0.65 l=0.15
X80 tdc0.w_dly_sig_n[72] tdc0.w_dly_sig[72] VPWR VPWR sky130_fd_pr__pfet_01v8_hvt ad=0.135 pd=1.27 as=0.26 ps=2.52 w=1 l=0.15
X81 VGND tdc0.w_dly_sig[2] tdc0.w_dly_sig_n[3] VGND sky130_fd_pr__nfet_01v8 ad=0.169 pd=1.82 as=0.0878 ps=0.92 w=0.65 l=0.15
X82 tdc0.w_dly_sig[14] tdc0.w_dly_sig_n[12] VPWR VPWR sky130_fd_pr__pfet_01v8_hvt ad=0.135 pd=1.27 as=0.26 ps=2.52 w=1 l=0.15
X83 a_17894_8751# _096_ a_17814_8751# VPWR sky130_fd_pr__pfet_01v8_hvt ad=0.18 pd=1.36 as=0.125 ps=1.25 w=1 l=0.15
X84 VPWR tdc0.w_dly_sig[101] tdc0.w_dly_sig_n[102] VPWR sky130_fd_pr__pfet_01v8_hvt ad=0.26 pd=2.52 as=0.135 ps=1.27 w=1 l=0.15
X85 VGND clknet_4_1_0_clk a_2143_6581# VGND sky130_fd_pr__nfet_01v8 ad=0.0567 pd=0.69 as=0.109 ps=1.36 w=0.42 l=0.15
X86 tdc0.w_dly_sig_n[119] tdc0.w_dly_sig[118] VGND VGND sky130_fd_pr__nfet_01v8 ad=0.0878 pd=0.92 as=0.169 ps=1.82 w=0.65 l=0.15
X87 tdc0.w_dly_sig[193] tdc0.w_dly_sig_n[192] VGND VGND sky130_fd_pr__nfet_01v8 ad=0.0878 pd=0.92 as=0.169 ps=1.82 w=0.65 l=0.15
X88 VGND tdc0.o_result[49] a_24593_15599# VGND sky130_fd_pr__nfet_01v8 ad=0.107 pd=0.98 as=0.0683 ps=0.86 w=0.65 l=0.15
X89 a_29173_4943# a_29007_4943# VGND VGND sky130_fd_pr__nfet_01v8 ad=0.109 pd=1.36 as=0.0567 ps=0.69 w=0.42 l=0.15
X90 VGND _157_ a_12999_8867# VGND sky130_fd_pr__nfet_01v8 ad=0.102 pd=0.99 as=0.0567 ps=0.69 w=0.42 l=0.15
X91 VPWR tdc0.o_result[191] a_20756_5193# VPWR sky130_fd_pr__pfet_01v8_hvt ad=0.135 pd=1.27 as=0.28 ps=1.56 w=1 l=0.15
X93 VGND tdc0.w_dly_sig[165] tdc0.w_dly_sig_n[166] VGND sky130_fd_pr__nfet_01v8 ad=0.169 pd=1.82 as=0.0878 ps=0.92 w=0.65 l=0.15
X94 a_11582_7637# a_11414_7663# VPWR VPWR sky130_fd_pr__pfet_01v8_hvt ad=0.109 pd=1.08 as=0.179 ps=1.26 w=0.75 l=0.15
X95 VPWR tdc0.w_dly_sig[31] tdc0.w_dly_sig_n[31] VPWR sky130_fd_pr__pfet_01v8_hvt ad=0.26 pd=2.52 as=0.135 ps=1.27 w=1 l=0.15
X96 VGND tdc0.w_dly_sig_n[80] tdc0.w_dly_sig[82] VGND sky130_fd_pr__nfet_01v8 ad=0.169 pd=1.82 as=0.0878 ps=0.92 w=0.65 l=0.15
X97 VPWR tdc0.w_dly_sig_n[133] tdc0.w_dly_sig[135] VPWR sky130_fd_pr__pfet_01v8_hvt ad=0.26 pd=2.52 as=0.135 ps=1.27 w=1 l=0.15
X98 VGND tdc0.w_dly_sig_n[43] tdc0.w_dly_sig[45] VGND sky130_fd_pr__nfet_01v8 ad=0.169 pd=1.82 as=0.0878 ps=0.92 w=0.65 l=0.15
X99 a_17481_8457# _101_ a_17409_8457# VPWR sky130_fd_pr__pfet_01v8_hvt ad=0.0693 pd=0.75 as=0.0441 ps=0.63 w=0.42 l=0.15
X100 a_23189_12335# tdc0.o_result[61] a_22751_12015# VGND sky130_fd_pr__nfet_01v8 ad=0.107 pd=0.98 as=0.169 ps=1.82 w=0.65 l=0.15
X101 a_12249_9839# tdc0.w_dly_sig[76] VGND VGND sky130_fd_pr__nfet_01v8 ad=0.0813 pd=0.83 as=0.109 ps=1.36 w=0.42 l=0.15
X102 a_29987_11445# clknet_4_14_0_clk VGND VGND sky130_fd_pr__nfet_01v8 ad=0.109 pd=1.36 as=0.0567 ps=0.69 w=0.42 l=0.15
X103 VPWR net1 tdc0.w_dly_sig_n[1] VPWR sky130_fd_pr__pfet_01v8_hvt ad=0.26 pd=2.52 as=0.135 ps=1.27 w=1 l=0.15
X104 a_7734_4399# a_7461_4405# a_7649_4399# VPWR sky130_fd_pr__pfet_01v8_hvt ad=0.0683 pd=0.745 as=0.0578 ps=0.695 w=0.42 l=0.15
X105 VGND clknet_4_12_0_clk a_22107_15823# VGND sky130_fd_pr__nfet_01v8 ad=0.0567 pd=0.69 as=0.109 ps=1.36 w=0.42 l=0.15
X106 VPWR tdc0.w_dly_sig[181] tdc0.w_dly_sig_n[181] VPWR sky130_fd_pr__pfet_01v8_hvt ad=0.26 pd=2.52 as=0.135 ps=1.27 w=1 l=0.15
X107 VGND clknet_4_0_0_clk a_5639_3855# VGND sky130_fd_pr__nfet_01v8 ad=0.0567 pd=0.69 as=0.109 ps=1.36 w=0.42 l=0.15
X108 VGND _155_ a_13722_8207# VGND sky130_fd_pr__nfet_01v8 ad=0.117 pd=1.01 as=0.185 ps=1.22 w=0.65 l=0.15
X109 a_24915_8983# _012_ VPWR VPWR sky130_fd_pr__pfet_01v8_hvt ad=0.0662 pd=0.735 as=0.142 ps=1.34 w=0.42 l=0.15
X110 clknet_0_clk a_16210_9839# VPWR VPWR sky130_fd_pr__pfet_01v8_hvt ad=0.14 pd=1.28 as=0.14 ps=1.28 w=1 l=0.15
X112 a_12521_11837# a_11987_11471# a_12426_11837# VPWR sky130_fd_pr__pfet_01v8_hvt ad=0.0767 pd=0.785 as=0.0683 ps=0.745 w=0.42 l=0.15
X114 VPWR a_7591_14165# a_7507_14191# VPWR sky130_fd_pr__pfet_01v8_hvt ad=0.111 pd=1.37 as=0.0882 ps=0.84 w=0.42 l=0.15
X115 VGND tdc0.w_dly_sig[18] tdc0.w_dly_sig_n[18] VGND sky130_fd_pr__nfet_01v8 ad=0.169 pd=1.82 as=0.0878 ps=0.92 w=0.65 l=0.15
X116 clknet_4_8_0_clk a_21104_6005# VGND VGND sky130_fd_pr__nfet_01v8 ad=0.0588 pd=0.7 as=0.113 ps=1.38 w=0.42 l=0.15
X118 tdc0.w_dly_sig[4] tdc0.w_dly_sig_n[2] VPWR VPWR sky130_fd_pr__pfet_01v8_hvt ad=0.135 pd=1.27 as=0.26 ps=2.52 w=1 l=0.15
X119 clknet_4_7_0_clk a_11812_13621# VPWR VPWR sky130_fd_pr__pfet_01v8_hvt ad=0.14 pd=1.28 as=0.14 ps=1.28 w=1 l=0.15
X120 VPWR a_5199_15253# a_5115_15279# VPWR sky130_fd_pr__pfet_01v8_hvt ad=0.111 pd=1.37 as=0.0882 ps=0.84 w=0.42 l=0.15
X121 VPWR tdc0.w_dly_sig_n[120] tdc0.w_dly_sig[122] VPWR sky130_fd_pr__pfet_01v8_hvt ad=0.26 pd=2.52 as=0.135 ps=1.27 w=1 l=0.15
X122 VPWR a_6855_13077# a_6771_13103# VPWR sky130_fd_pr__pfet_01v8_hvt ad=0.111 pd=1.37 as=0.0882 ps=0.84 w=0.42 l=0.15
X123 a_17665_10927# _094_ a_17415_10927# VPWR sky130_fd_pr__pfet_01v8_hvt ad=0.135 pd=1.27 as=0.135 ps=1.27 w=1 l=0.15
X124 tdc0.w_dly_sig[191] tdc0.w_dly_sig_n[189] VPWR VPWR sky130_fd_pr__pfet_01v8_hvt ad=0.135 pd=1.27 as=0.26 ps=2.52 w=1 l=0.15
X125 tdc0.w_dly_sig_n[76] tdc0.w_dly_sig[75] VGND VGND sky130_fd_pr__nfet_01v8 ad=0.0878 pd=0.92 as=0.169 ps=1.82 w=0.65 l=0.15
X126 a_23634_7637# a_23466_7663# VGND VGND sky130_fd_pr__nfet_01v8 ad=0.0989 pd=0.995 as=0.121 ps=1.09 w=0.64 l=0.15
X127 a_14250_18517# a_14082_18543# VPWR VPWR sky130_fd_pr__pfet_01v8_hvt ad=0.109 pd=1.08 as=0.179 ps=1.26 w=0.75 l=0.15
X128 a_23903_2919# a_23999_2741# VGND VGND sky130_fd_pr__nfet_01v8 ad=0.169 pd=1.82 as=0.0878 ps=0.92 w=0.65 l=0.15
X129 a_16451_11265# _034_ VGND VGND sky130_fd_pr__nfet_01v8 ad=0.0567 pd=0.69 as=0.112 ps=1.04 w=0.42 l=0.15
X130 a_29998_7663# a_29559_7669# a_29913_7663# VGND sky130_fd_pr__nfet_01v8 ad=0.0621 pd=0.705 as=0.0813 ps=0.83 w=0.36 l=0.15
X131 a_27675_12381# a_27455_12393# VGND VGND sky130_fd_pr__nfet_01v8 ad=0.0696 pd=0.765 as=0.121 ps=1.09 w=0.42 l=0.15
X132 a_7553_12021# a_7387_12021# VGND VGND sky130_fd_pr__nfet_01v8 ad=0.109 pd=1.36 as=0.0567 ps=0.69 w=0.42 l=0.15
X133 a_28227_2767# a_28007_2767# VGND VGND sky130_fd_pr__nfet_01v8 ad=0.0696 pd=0.765 as=0.121 ps=1.09 w=0.42 l=0.15
X134 a_27179_3855# a_27043_3829# a_26759_3829# VPWR sky130_fd_pr__pfet_01v8_hvt ad=0.109 pd=1.08 as=0.0567 ps=0.69 w=0.42 l=0.15
X136 tdc0.w_dly_sig[154] tdc0.w_dly_sig_n[152] VPWR VPWR sky130_fd_pr__pfet_01v8_hvt ad=0.135 pd=1.27 as=0.26 ps=2.52 w=1 l=0.15
X137 VPWR a_10506_7119# clknet_4_3_0_clk VPWR sky130_fd_pr__pfet_01v8_hvt ad=0.265 pd=2.53 as=0.14 ps=1.28 w=1 l=0.15
X139 a_8381_7663# a_7847_7669# a_8286_7663# VPWR sky130_fd_pr__pfet_01v8_hvt ad=0.0767 pd=0.785 as=0.0683 ps=0.745 w=0.42 l=0.15
X140 a_6998_14191# a_6559_14197# a_6913_14191# VGND sky130_fd_pr__nfet_01v8 ad=0.0621 pd=0.705 as=0.0813 ps=0.83 w=0.36 l=0.15
X142 VGND tdc0.w_dly_sig[17] tdc0.w_dly_sig_n[18] VGND sky130_fd_pr__nfet_01v8 ad=0.169 pd=1.82 as=0.0878 ps=0.92 w=0.65 l=0.15
X143 a_14082_18543# a_13809_18549# a_13997_18543# VPWR sky130_fd_pr__pfet_01v8_hvt ad=0.0683 pd=0.745 as=0.0578 ps=0.695 w=0.42 l=0.15
X144 a_26483_16885# a_26767_16885# a_26702_16911# VGND sky130_fd_pr__nfet_01v8 ad=0.0684 pd=0.74 as=0.066 ps=0.745 w=0.36 l=0.15
X146 tdc0.w_dly_sig_n[172] tdc0.w_dly_sig[171] VPWR VPWR sky130_fd_pr__pfet_01v8_hvt ad=0.135 pd=1.27 as=0.26 ps=2.52 w=1 l=0.15
X147 VPWR tdc0.w_dly_sig[69] tdc0.w_dly_sig_n[69] VPWR sky130_fd_pr__pfet_01v8_hvt ad=0.26 pd=2.52 as=0.135 ps=1.27 w=1 l=0.15
X149 tdc0.w_dly_sig[37] tdc0.w_dly_sig_n[35] VGND VGND sky130_fd_pr__nfet_01v8 ad=0.0878 pd=0.92 as=0.169 ps=1.82 w=0.65 l=0.15
X150 VGND a_7074_15253# a_7032_15657# VGND sky130_fd_pr__nfet_01v8 ad=0.121 pd=1.09 as=0.0696 ps=0.765 w=0.42 l=0.15
X152 a_11172_4943# a_10773_4943# a_11046_5309# VGND sky130_fd_pr__nfet_01v8 ad=0.0696 pd=0.765 as=0.0621 ps=0.705 w=0.36 l=0.15
X153 a_14437_8725# _033_ VGND VGND sky130_fd_pr__nfet_01v8 ad=0.101 pd=0.96 as=0.275 ps=1.5 w=0.65 l=0.15
X154 tdc0.o_result[66] a_21759_15003# VGND VGND sky130_fd_pr__nfet_01v8 ad=0.169 pd=1.82 as=0.0878 ps=0.92 w=0.65 l=0.15
X155 VGND a_12254_13103# clknet_4_6_0_clk VGND sky130_fd_pr__nfet_01v8 ad=0.0588 pd=0.7 as=0.0588 ps=0.7 w=0.42 l=0.15
X156 VGND a_19773_9441# _177_ VGND sky130_fd_pr__nfet_01v8 ad=0.275 pd=1.5 as=0.214 ps=1.96 w=0.65 l=0.15
X157 VGND a_8879_7637# a_8837_8041# VGND sky130_fd_pr__nfet_01v8 ad=0.109 pd=1.36 as=0.066 ps=0.745 w=0.42 l=0.15
X158 VGND tdc0.w_dly_sig_n[50] tdc0.w_dly_sig[52] VGND sky130_fd_pr__nfet_01v8 ad=0.169 pd=1.82 as=0.0878 ps=0.92 w=0.65 l=0.15
X159 tdc0.o_result[168] a_15595_2197# VGND VGND sky130_fd_pr__nfet_01v8 ad=0.169 pd=1.82 as=0.0878 ps=0.92 w=0.65 l=0.15
X160 VPWR a_10202_3967# a_10129_4221# VPWR sky130_fd_pr__pfet_01v8_hvt ad=0.179 pd=1.26 as=0.0767 ps=0.785 w=0.42 l=0.15
X161 VPWR a_8638_3285# a_8565_3311# VPWR sky130_fd_pr__pfet_01v8_hvt ad=0.179 pd=1.26 as=0.0767 ps=0.785 w=0.42 l=0.15
X162 tdc0.w_dly_sig[1] tdc0.w_dly_sig_n[0] VGND VGND sky130_fd_pr__nfet_01v8 ad=0.0878 pd=0.92 as=0.0878 ps=0.92 w=0.65 l=0.15
X163 a_21844_5865# a_21445_5493# a_21718_5487# VGND sky130_fd_pr__nfet_01v8 ad=0.0696 pd=0.765 as=0.0621 ps=0.705 w=0.36 l=0.15
X164 VPWR clknet_4_13_0_clk a_16587_14197# VPWR sky130_fd_pr__pfet_01v8_hvt ad=0.0864 pd=0.91 as=0.166 ps=1.8 w=0.64 l=0.15
X165 VPWR _007_ a_13275_7776# VPWR sky130_fd_pr__pfet_01v8_hvt ad=0.142 pd=1.34 as=0.0662 ps=0.735 w=0.42 l=0.15
X166 a_28818_13469# a_28503_13335# VGND VGND sky130_fd_pr__nfet_01v8 ad=0.066 pd=0.745 as=0.109 ps=1.36 w=0.42 l=0.15
X167 VPWR tdc0.w_dly_sig_n[173] tdc0.w_dly_sig[175] VPWR sky130_fd_pr__pfet_01v8_hvt ad=0.26 pd=2.52 as=0.135 ps=1.27 w=1 l=0.15
X168 VGND a_19947_4007# _176_ VGND sky130_fd_pr__nfet_01v8 ad=0.132 pd=1.14 as=0.169 ps=1.82 w=0.65 l=0.15
X170 VGND tdc0.w_dly_sig[88] tdc0.w_dly_sig_n[89] VGND sky130_fd_pr__nfet_01v8 ad=0.169 pd=1.82 as=0.0878 ps=0.92 w=0.65 l=0.15
X171 _093_ a_13551_11721# VGND VGND sky130_fd_pr__nfet_01v8 ad=0.169 pd=1.82 as=0.101 ps=0.96 w=0.65 l=0.15
X172 VPWR tdc0.w_dly_sig_n[171] tdc0.w_dly_sig[173] VPWR sky130_fd_pr__pfet_01v8_hvt ad=0.26 pd=2.52 as=0.135 ps=1.27 w=1 l=0.15
X173 VPWR tdc0.w_dly_sig[173] tdc0.w_dly_sig_n[174] VPWR sky130_fd_pr__pfet_01v8_hvt ad=0.26 pd=2.52 as=0.135 ps=1.27 w=1 l=0.15
X174 VPWR a_14887_4631# _162_ VPWR sky130_fd_pr__pfet_01v8_hvt ad=0.142 pd=1.34 as=0.26 ps=2.52 w=1 l=0.15
X175 VPWR net5 a_16739_7895# VPWR sky130_fd_pr__pfet_01v8_hvt ad=0.118 pd=1.4 as=0.0567 ps=0.69 w=0.42 l=0.15
X176 tdc0.w_dly_sig[54] tdc0.w_dly_sig_n[53] VPWR VPWR sky130_fd_pr__pfet_01v8_hvt ad=0.135 pd=1.27 as=0.26 ps=2.52 w=1 l=0.15
X177 a_24469_12015# tdc0.o_result[5] a_23947_12335# VGND sky130_fd_pr__nfet_01v8 ad=0.169 pd=1.82 as=0.0975 ps=0.95 w=0.65 l=0.15
X178 a_25191_1831# a_25287_1653# VPWR VPWR sky130_fd_pr__pfet_01v8_hvt ad=0.27 pd=2.54 as=0.135 ps=1.27 w=1 l=0.15
X179 VPWR a_21638_8181# a_21567_8207# VPWR sky130_fd_pr__pfet_01v8_hvt ad=0.179 pd=1.26 as=0.109 ps=1.08 w=0.75 l=0.15
X180 VPWR a_17451_14191# a_17619_14165# VPWR sky130_fd_pr__pfet_01v8_hvt ad=0.135 pd=1.27 as=0.27 ps=2.54 w=1 l=0.15
X181 a_3226_14191# a_2787_14197# a_3141_14191# VGND sky130_fd_pr__nfet_01v8 ad=0.0621 pd=0.705 as=0.0813 ps=0.83 w=0.36 l=0.15
X183 a_7182_7485# a_6909_7119# a_7097_7119# VPWR sky130_fd_pr__pfet_01v8_hvt ad=0.0683 pd=0.745 as=0.0578 ps=0.695 w=0.42 l=0.15
X184 a_26575_15511# a_26866_15401# a_26817_15279# VPWR sky130_fd_pr__pfet_01v8_hvt ad=0.0567 pd=0.69 as=0.0882 ps=0.84 w=0.42 l=0.15
X185 tdc0.w_dly_sig[47] tdc0.w_dly_sig_n[46] VGND VGND sky130_fd_pr__nfet_01v8 ad=0.0878 pd=0.92 as=0.169 ps=1.82 w=0.65 l=0.15
X186 a_10129_4221# a_9595_3855# a_10034_4221# VPWR sky130_fd_pr__pfet_01v8_hvt ad=0.0767 pd=0.785 as=0.0683 ps=0.745 w=0.42 l=0.15
X187 VPWR a_4555_4373# a_4471_4399# VPWR sky130_fd_pr__pfet_01v8_hvt ad=0.111 pd=1.37 as=0.0882 ps=0.84 w=0.42 l=0.15
X188 tdc0.w_dly_sig[179] tdc0.w_dly_sig_n[177] VGND VGND sky130_fd_pr__nfet_01v8 ad=0.0878 pd=0.92 as=0.169 ps=1.82 w=0.65 l=0.15
X190 a_22178_17277# a_21905_16911# a_22093_16911# VPWR sky130_fd_pr__pfet_01v8_hvt ad=0.0683 pd=0.745 as=0.0578 ps=0.695 w=0.42 l=0.15
X191 a_25755_15797# clknet_4_15_0_clk VGND VGND sky130_fd_pr__nfet_01v8 ad=0.109 pd=1.36 as=0.0567 ps=0.69 w=0.42 l=0.15
X192 a_17703_6895# net5 _064_ VGND sky130_fd_pr__nfet_01v8 ad=0.169 pd=1.82 as=0.0878 ps=0.92 w=0.65 l=0.15
X193 a_10459_3133# a_9761_2767# a_10202_2879# VGND sky130_fd_pr__nfet_01v8 ad=0.0684 pd=0.74 as=0.0989 ps=0.995 w=0.36 l=0.15
X194 tdc0.w_dly_sig[103] tdc0.w_dly_sig_n[101] VPWR VPWR sky130_fd_pr__pfet_01v8_hvt ad=0.135 pd=1.27 as=0.26 ps=2.52 w=1 l=0.15
X196 tdc0.w_dly_sig[5] tdc0.w_dly_sig_n[3] VPWR VPWR sky130_fd_pr__pfet_01v8_hvt ad=0.135 pd=1.27 as=0.26 ps=2.52 w=1 l=0.15
X197 VPWR tdc0.o_result[158] a_14287_3855# VPWR sky130_fd_pr__pfet_01v8_hvt ad=0.0567 pd=0.69 as=0.109 ps=1.36 w=0.42 l=0.15
X198 VGND a_14250_18517# a_14208_18921# VGND sky130_fd_pr__nfet_01v8 ad=0.121 pd=1.09 as=0.0696 ps=0.765 w=0.42 l=0.15
X199 a_11655_2045# a_10791_1679# a_11398_1791# VPWR sky130_fd_pr__pfet_01v8_hvt ad=0.0567 pd=0.69 as=0.109 ps=1.08 w=0.42 l=0.15
X200 _161_ a_19150_8207# VPWR VPWR sky130_fd_pr__pfet_01v8_hvt ad=0.29 pd=2.58 as=0.265 ps=2.53 w=1 l=0.15
X201 a_16692_18921# a_16293_18549# a_16566_18543# VGND sky130_fd_pr__nfet_01v8 ad=0.0696 pd=0.765 as=0.0621 ps=0.705 w=0.36 l=0.15
X202 a_8565_15823# a_8399_15823# VGND VGND sky130_fd_pr__nfet_01v8 ad=0.109 pd=1.36 as=0.0567 ps=0.69 w=0.42 l=0.15
X203 tdc0.o_result[31] a_22679_4373# VPWR VPWR sky130_fd_pr__pfet_01v8_hvt ad=0.26 pd=2.52 as=0.135 ps=1.27 w=1 l=0.15
X204 VGND _166_ a_12434_8207# VGND sky130_fd_pr__nfet_01v8 ad=0.117 pd=1.01 as=0.185 ps=1.22 w=0.65 l=0.15
X205 VPWR a_29895_4617# a_29902_4521# VPWR sky130_fd_pr__pfet_01v8_hvt ad=0.0864 pd=0.91 as=0.166 ps=1.8 w=0.64 l=0.15
X206 a_19395_7895# _011_ VPWR VPWR sky130_fd_pr__pfet_01v8_hvt ad=0.0662 pd=0.735 as=0.142 ps=1.34 w=0.42 l=0.15
X207 VPWR tdc0.w_dly_sig_n[38] tdc0.w_dly_sig[40] VPWR sky130_fd_pr__pfet_01v8_hvt ad=0.26 pd=2.52 as=0.135 ps=1.27 w=1 l=0.15
X208 VPWR a_23903_4007# _128_ VPWR sky130_fd_pr__pfet_01v8_hvt ad=0.142 pd=1.34 as=0.26 ps=2.52 w=1 l=0.15
X209 a_6940_16745# a_6541_16373# a_6814_16367# VGND sky130_fd_pr__nfet_01v8 ad=0.0696 pd=0.765 as=0.0621 ps=0.705 w=0.36 l=0.15
X211 VPWR clknet_4_14_0_clk a_29375_12559# VPWR sky130_fd_pr__pfet_01v8_hvt ad=0.0864 pd=0.91 as=0.166 ps=1.8 w=0.64 l=0.15
X212 a_26203_11623# a_26299_11445# VGND VGND sky130_fd_pr__nfet_01v8 ad=0.169 pd=1.82 as=0.0878 ps=0.92 w=0.65 l=0.15
X213 a_14507_18543# a_13809_18549# a_14250_18517# VGND sky130_fd_pr__nfet_01v8 ad=0.0684 pd=0.74 as=0.0989 ps=0.995 w=0.36 l=0.15
X215 VPWR tdc0.w_dly_sig[35] tdc0.w_dly_sig_n[36] VPWR sky130_fd_pr__pfet_01v8_hvt ad=0.26 pd=2.52 as=0.135 ps=1.27 w=1 l=0.15
X216 a_27505_9129# a_26958_8873# a_27158_9028# VPWR sky130_fd_pr__pfet_01v8_hvt ad=0.0578 pd=0.695 as=0.0683 ps=0.745 w=0.42 l=0.15
X217 tdc0.w_dly_sig_n[11] tdc0.w_dly_sig[11] VGND VGND sky130_fd_pr__nfet_01v8 ad=0.0878 pd=0.92 as=0.169 ps=1.82 w=0.65 l=0.15
X218 VGND tdc0.w_dly_sig_n[182] tdc0.w_dly_sig[183] VGND sky130_fd_pr__nfet_01v8 ad=0.169 pd=1.82 as=0.0878 ps=0.92 w=0.65 l=0.15
X219 a_15101_16911# tdc0.w_dly_sig[89] VGND VGND sky130_fd_pr__nfet_01v8 ad=0.0813 pd=0.83 as=0.109 ps=1.36 w=0.42 l=0.15
X221 tdc0.w_dly_sig_n[67] tdc0.w_dly_sig[66] VGND VGND sky130_fd_pr__nfet_01v8 ad=0.0878 pd=0.92 as=0.169 ps=1.82 w=0.65 l=0.15
X222 VGND a_7699_15101# a_7867_15003# VGND sky130_fd_pr__nfet_01v8 ad=0.0878 pd=0.92 as=0.169 ps=1.82 w=0.65 l=0.15
X224 VPWR a_12594_11583# a_12521_11837# VPWR sky130_fd_pr__pfet_01v8_hvt ad=0.179 pd=1.26 as=0.0767 ps=0.785 w=0.42 l=0.15
X225 a_8197_16373# a_8031_16373# VGND VGND sky130_fd_pr__nfet_01v8 ad=0.109 pd=1.36 as=0.0567 ps=0.69 w=0.42 l=0.15
X226 a_1849_11471# a_1683_11471# VPWR VPWR sky130_fd_pr__pfet_01v8_hvt ad=0.166 pd=1.8 as=0.0864 ps=0.91 w=0.64 l=0.15
X227 a_21327_11159# a_21423_11159# VGND VGND sky130_fd_pr__nfet_01v8 ad=0.169 pd=1.82 as=0.0878 ps=0.92 w=0.65 l=0.15
X228 a_16113_2767# tdc0.w_dly_sig[174] VPWR VPWR sky130_fd_pr__pfet_01v8_hvt ad=0.0578 pd=0.695 as=0.109 ps=1.36 w=0.42 l=0.15
X229 a_29725_14197# a_29559_14197# VGND VGND sky130_fd_pr__nfet_01v8 ad=0.109 pd=1.36 as=0.0567 ps=0.69 w=0.42 l=0.15
X230 VPWR clknet_0_clk a_6550_12559# VPWR sky130_fd_pr__pfet_01v8_hvt ad=0.14 pd=1.28 as=0.14 ps=1.28 w=1 l=0.15
X232 tdc0.w_dly_sig[53] tdc0.w_dly_sig_n[52] VGND VGND sky130_fd_pr__nfet_01v8 ad=0.0878 pd=0.92 as=0.169 ps=1.82 w=0.65 l=0.15
X233 VGND a_16762_15797# a_16691_15823# VGND sky130_fd_pr__nfet_01v8 ad=0.121 pd=1.09 as=0.0989 ps=0.995 w=0.64 l=0.15
X234 net6 a_18151_1135# VPWR VPWR sky130_fd_pr__pfet_01v8_hvt ad=0.14 pd=1.28 as=0.165 ps=1.33 w=1 l=0.15
X235 VGND a_15333_4737# _039_ VGND sky130_fd_pr__nfet_01v8 ad=0.247 pd=2.06 as=0.127 ps=1.04 w=0.65 l=0.15
X236 VPWR a_27503_5705# a_27510_5609# VPWR sky130_fd_pr__pfet_01v8_hvt ad=0.0864 pd=0.91 as=0.166 ps=1.8 w=0.64 l=0.15
X237 a_1738_7231# a_1570_7485# VGND VGND sky130_fd_pr__nfet_01v8 ad=0.0989 pd=0.995 as=0.121 ps=1.09 w=0.64 l=0.15
X238 VPWR a_9263_9661# a_9431_9563# VPWR sky130_fd_pr__pfet_01v8_hvt ad=0.135 pd=1.27 as=0.27 ps=2.54 w=1 l=0.15
X239 a_22849_3855# _056_ a_22777_3855# VGND sky130_fd_pr__nfet_01v8 ad=0.0441 pd=0.63 as=0.0441 ps=0.63 w=0.42 l=0.15
X240 VPWR tdc0.w_dly_sig_n[27] tdc0.w_dly_sig[29] VPWR sky130_fd_pr__pfet_01v8_hvt ad=0.26 pd=2.52 as=0.135 ps=1.27 w=1 l=0.15
X241 a_8872_17833# a_8473_17461# a_8746_17455# VGND sky130_fd_pr__nfet_01v8 ad=0.0696 pd=0.765 as=0.0621 ps=0.705 w=0.36 l=0.15
X242 a_15170_2197# a_15002_2223# VGND VGND sky130_fd_pr__nfet_01v8 ad=0.0989 pd=0.995 as=0.121 ps=1.09 w=0.64 l=0.15
X243 tdc0.w_dly_sig_n[19] tdc0.w_dly_sig[18] VGND VGND sky130_fd_pr__nfet_01v8 ad=0.0878 pd=0.92 as=0.169 ps=1.82 w=0.65 l=0.15
X244 VPWR tdc0.w_dly_sig_n[25] tdc0.w_dly_sig[26] VPWR sky130_fd_pr__pfet_01v8_hvt ad=0.26 pd=2.52 as=0.135 ps=1.27 w=1 l=0.15
X245 VGND clknet_4_1_0_clk a_4167_7119# VGND sky130_fd_pr__nfet_01v8 ad=0.0567 pd=0.69 as=0.109 ps=1.36 w=0.42 l=0.15
X246 tdc0.w_dly_sig[151] tdc0.w_dly_sig_n[149] VGND VGND sky130_fd_pr__nfet_01v8 ad=0.0878 pd=0.92 as=0.169 ps=1.82 w=0.65 l=0.15
X248 a_23999_4917# a_24283_4917# a_24218_4943# VGND sky130_fd_pr__nfet_01v8 ad=0.0684 pd=0.74 as=0.066 ps=0.745 w=0.36 l=0.15
X249 a_9758_9839# a_9319_9845# a_9673_9839# VGND sky130_fd_pr__nfet_01v8 ad=0.0621 pd=0.705 as=0.0813 ps=0.83 w=0.36 l=0.15
X250 tdc0.w_dly_sig[91] tdc0.w_dly_sig_n[89] VGND VGND sky130_fd_pr__nfet_01v8 ad=0.0878 pd=0.92 as=0.169 ps=1.82 w=0.65 l=0.15
X251 VGND tdc0.w_dly_sig_n[70] tdc0.w_dly_sig[72] VGND sky130_fd_pr__nfet_01v8 ad=0.169 pd=1.82 as=0.0878 ps=0.92 w=0.65 l=0.15
X252 a_10018_2197# a_9850_2223# VPWR VPWR sky130_fd_pr__pfet_01v8_hvt ad=0.109 pd=1.08 as=0.179 ps=1.26 w=0.75 l=0.15
X253 a_13257_2229# a_13091_2229# VGND VGND sky130_fd_pr__nfet_01v8 ad=0.109 pd=1.36 as=0.0567 ps=0.69 w=0.42 l=0.15
X254 a_16635_4007# tdc0.o_result[173] VPWR VPWR sky130_fd_pr__pfet_01v8_hvt ad=0.109 pd=1.36 as=0.0567 ps=0.69 w=0.42 l=0.15
X256 VPWR clknet_4_0_0_clk a_5639_3855# VPWR sky130_fd_pr__pfet_01v8_hvt ad=0.0864 pd=0.91 as=0.166 ps=1.8 w=0.64 l=0.15
X257 VGND a_9834_4373# a_9792_4777# VGND sky130_fd_pr__nfet_01v8 ad=0.121 pd=1.09 as=0.0696 ps=0.765 w=0.42 l=0.15
X258 VGND a_25410_3829# a_25339_3855# VGND sky130_fd_pr__nfet_01v8 ad=0.121 pd=1.09 as=0.0989 ps=0.995 w=0.64 l=0.15
X259 VGND tdc0.w_dly_sig_n[55] tdc0.w_dly_sig[56] VGND sky130_fd_pr__nfet_01v8 ad=0.169 pd=1.82 as=0.0878 ps=0.92 w=0.65 l=0.15
X260 VPWR tdc0.w_dly_sig_n[65] tdc0.w_dly_sig[66] VPWR sky130_fd_pr__pfet_01v8_hvt ad=0.26 pd=2.52 as=0.135 ps=1.27 w=1 l=0.15
X261 VPWR _010_ a_19395_6807# VPWR sky130_fd_pr__pfet_01v8_hvt ad=0.0567 pd=0.69 as=0.0662 ps=0.735 w=0.42 l=0.15
X262 a_18590_2223# a_18317_2229# a_18505_2223# VPWR sky130_fd_pr__pfet_01v8_hvt ad=0.0683 pd=0.745 as=0.0578 ps=0.695 w=0.42 l=0.15
X263 a_20102_9545# _176_ a_20022_9545# VPWR sky130_fd_pr__pfet_01v8_hvt ad=0.18 pd=1.36 as=0.125 ps=1.25 w=1 l=0.15
X264 VPWR tdc0.w_dly_sig_n[172] tdc0.w_dly_sig[174] VPWR sky130_fd_pr__pfet_01v8_hvt ad=0.26 pd=2.52 as=0.135 ps=1.27 w=1 l=0.15
X265 a_18003_18365# a_17139_17999# a_17746_18111# VPWR sky130_fd_pr__pfet_01v8_hvt ad=0.0567 pd=0.69 as=0.109 ps=1.08 w=0.42 l=0.15
X266 VGND tdc0.w_dly_sig[80] tdc0.w_dly_sig_n[80] VGND sky130_fd_pr__nfet_01v8 ad=0.169 pd=1.82 as=0.0878 ps=0.92 w=0.65 l=0.15
X267 tdc0.w_dly_sig_n[190] tdc0.w_dly_sig[189] VPWR VPWR sky130_fd_pr__pfet_01v8_hvt ad=0.135 pd=1.27 as=0.26 ps=2.52 w=1 l=0.15
X268 a_7399_6031# a_7270_6305# a_6979_6005# VGND sky130_fd_pr__nfet_01v8 ad=0.0989 pd=0.995 as=0.0684 ps=0.74 w=0.36 l=0.15
X269 a_28078_2741# a_27878_3041# a_28227_2767# VGND sky130_fd_pr__nfet_01v8 ad=0.0621 pd=0.705 as=0.0696 ps=0.765 w=0.36 l=0.15
X270 a_8565_3311# a_8031_3317# a_8470_3311# VPWR sky130_fd_pr__pfet_01v8_hvt ad=0.0767 pd=0.785 as=0.0683 ps=0.745 w=0.42 l=0.15
X271 a_5989_4405# a_5823_4405# VPWR VPWR sky130_fd_pr__pfet_01v8_hvt ad=0.166 pd=1.8 as=0.0864 ps=0.91 w=0.64 l=0.15
X272 a_25707_1679# a_25571_1653# a_25287_1653# VPWR sky130_fd_pr__pfet_01v8_hvt ad=0.109 pd=1.08 as=0.0567 ps=0.69 w=0.42 l=0.15