* PEX produced on Sat Mar 16 12:48:03 AM CET 2024 using /foss/tools/osic-multitool/iic-pex.sh with m=1 and s=1
* NGSPICE file created from tdc.ext - technology: sky130A

.subckt tdc i_start i_stop o_result[0] o_result[14] o_result[16] o_result[19] o_result[20]
+ o_result[21] o_result[22] o_result[23] o_result[24] o_result[25] o_result[26] o_result[27]
+ o_result[28] o_result[2] o_result[32] o_result[35] o_result[37] o_result[38] o_result[3]
+ o_result[40] o_result[41] o_result[42] o_result[43] o_result[44] o_result[45] o_result[49]
+ o_result[50] o_result[51] o_result[53] o_result[54] o_result[56] o_result[57] o_result[59]
+ o_result[5] o_result[60] o_result[61] o_result[62] o_result[6] o_result[7] o_result[8]
+ o_result[46] o_result[11] o_result[48] o_result[29] o_result[34] o_result[31] o_result[13]
+ o_result[18] o_result[10] o_result[58] o_result[63] o_result[55] o_result[47] o_result[52]
+ o_result[39] o_result[36] o_result[33] o_result[30] o_result[15] o_result[12] o_result[17]
+ o_result[4] o_result[9] VPWR o_result[1] VGND
X0 VPWR w_dly_sig[31] w_dly_sig_n[32] VPWR sky130_fd_pr__pfet_01v8_hvt ad=0.26 pd=2.52 as=0.135 ps=1.27 w=1 l=0.15
X5 VGND w_dly_sig[53] w_dly_sig_n[54] VGND sky130_fd_pr__nfet_01v8 ad=0.169 pd=1.82 as=0.0878 ps=0.92 w=0.65 l=0.15
X9 a_16210_9839# i_stop VGND VGND sky130_fd_pr__nfet_01v8 ad=0.0588 pd=0.7 as=0.111 ps=1.37 w=0.42 l=0.15
X10 VPWR w_dly_sig[17] w_dly_sig_n[17] VPWR sky130_fd_pr__pfet_01v8_hvt ad=0.26 pd=2.52 as=0.135 ps=1.27 w=1 l=0.15
X12 VGND a_10046_9028# a_9975_9129# VGND sky130_fd_pr__nfet_01v8 ad=0.121 pd=1.09 as=0.0989 ps=0.995 w=0.64 l=0.15
X13 clknet_3_5__leaf_i_stop a_21454_8207# VGND VGND sky130_fd_pr__nfet_01v8 ad=0.0588 pd=0.7 as=0.0588 ps=0.7 w=0.42 l=0.15
X14 VPWR w_dly_sig_n[2] w_dly_sig[3] VPWR sky130_fd_pr__pfet_01v8_hvt ad=0.26 pd=2.52 as=0.135 ps=1.27 w=1 l=0.15
X15 w_dly_sig[9] w_dly_sig_n[8] VGND VGND sky130_fd_pr__nfet_01v8 ad=0.0878 pd=0.92 as=0.169 ps=1.82 w=0.65 l=0.15
X18 VPWR w_dly_sig[63] w_dly_sig_n[64] VPWR sky130_fd_pr__pfet_01v8_hvt ad=0.26 pd=2.52 as=0.135 ps=1.27 w=1 l=0.15
X23 a_12778_11989# a_12610_12015# VGND VGND sky130_fd_pr__nfet_01v8 ad=0.0989 pd=0.995 as=0.121 ps=1.09 w=0.64 l=0.15
X24 net1 a_22694_591# VGND VGND sky130_fd_pr__nfet_01v8 ad=0.169 pd=1.82 as=0.097 ps=0.975 w=0.65 l=0.15
X25 VPWR w_dly_sig[58] w_dly_sig_n[59] VPWR sky130_fd_pr__pfet_01v8_hvt ad=0.26 pd=2.52 as=0.135 ps=1.27 w=1 l=0.15
X26 a_13422_10901# a_13254_10927# VPWR VPWR sky130_fd_pr__pfet_01v8_hvt ad=0.109 pd=1.08 as=0.179 ps=1.26 w=0.75 l=0.15
X27 o_result[2] a_15595_6299# VPWR VPWR sky130_fd_pr__pfet_01v8_hvt ad=0.135 pd=1.27 as=0.135 ps=1.27 w=1 l=0.15
X28 o_result[56] a_21667_12827# VGND VGND sky130_fd_pr__nfet_01v8 ad=0.0878 pd=0.92 as=0.0878 ps=0.92 w=0.65 l=0.15
X29 VPWR a_21638_12015# clknet_3_7__leaf_i_stop VPWR sky130_fd_pr__pfet_01v8_hvt ad=0.14 pd=1.28 as=0.14 ps=1.28 w=1 l=0.15
X30 o_result[3] a_17159_6299# VGND VGND sky130_fd_pr__nfet_01v8 ad=0.0878 pd=0.92 as=0.0878 ps=0.92 w=0.65 l=0.15
X32 VGND a_16991_7663# a_17159_7637# VGND sky130_fd_pr__nfet_01v8 ad=0.0878 pd=0.92 as=0.169 ps=1.82 w=0.65 l=0.15
X34 a_13254_10927# a_12981_10933# a_13169_10927# VPWR sky130_fd_pr__pfet_01v8_hvt ad=0.0683 pd=0.745 as=0.0578 ps=0.695 w=0.42 l=0.15
X36 VPWR w_dly_sig_n[25] w_dly_sig[26] VPWR sky130_fd_pr__pfet_01v8_hvt ad=0.26 pd=2.52 as=0.135 ps=1.27 w=1 l=0.15
X38 a_14618_11583# a_14450_11837# VPWR VPWR sky130_fd_pr__pfet_01v8_hvt ad=0.109 pd=1.08 as=0.179 ps=1.26 w=0.75 l=0.15
X39 a_12759_6397# a_12061_6031# a_12502_6143# VGND sky130_fd_pr__nfet_01v8 ad=0.0684 pd=0.74 as=0.0989 ps=0.995 w=0.36 l=0.15
X40 a_22454_7485# a_22181_7119# a_22369_7119# VPWR sky130_fd_pr__pfet_01v8_hvt ad=0.0683 pd=0.745 as=0.0578 ps=0.695 w=0.42 l=0.15
X41 VGND a_14875_11837# a_15043_11739# VGND sky130_fd_pr__nfet_01v8 ad=0.0878 pd=0.92 as=0.169 ps=1.82 w=0.65 l=0.15
X42 a_15036_9129# a_14637_8757# a_14910_8751# VGND sky130_fd_pr__nfet_01v8 ad=0.0696 pd=0.765 as=0.0621 ps=0.705 w=0.36 l=0.15
X43 a_16991_6397# a_16293_6031# a_16734_6143# VGND sky130_fd_pr__nfet_01v8 ad=0.0684 pd=0.74 as=0.0989 ps=0.995 w=0.36 l=0.15
X46 VGND clknet_0_i_stop a_9113_7637# VGND sky130_fd_pr__nfet_01v8 ad=0.0588 pd=0.7 as=0.0588 ps=0.7 w=0.42 l=0.15
X48 VGND a_16841_7093# clknet_3_4__leaf_i_stop VGND sky130_fd_pr__nfet_01v8 ad=0.0588 pd=0.7 as=0.0588 ps=0.7 w=0.42 l=0.15
X49 clknet_0_i_stop a_16210_9839# VPWR VPWR sky130_fd_pr__pfet_01v8_hvt ad=0.14 pd=1.28 as=0.14 ps=1.28 w=1 l=0.15
X52 a_17075_7663# a_16293_7669# a_16991_7663# VPWR sky130_fd_pr__pfet_01v8_hvt ad=0.0882 pd=0.84 as=0.0567 ps=0.69 w=0.42 l=0.15
X54 VPWR a_8482_6852# a_8411_6953# VPWR sky130_fd_pr__pfet_01v8_hvt ad=0.179 pd=1.26 as=0.109 ps=1.08 w=0.75 l=0.15
X55 w_dly_sig_n[8] w_dly_sig[7] VPWR VPWR sky130_fd_pr__pfet_01v8_hvt ad=0.135 pd=1.27 as=0.26 ps=2.52 w=1 l=0.15
X56 w_dly_sig_n[1] w_dly_sig[1] VPWR VPWR sky130_fd_pr__pfet_01v8_hvt ad=0.135 pd=1.27 as=0.26 ps=2.52 w=1 l=0.15
X59 a_14637_8757# a_14471_8757# VGND VGND sky130_fd_pr__nfet_01v8 ad=0.109 pd=1.36 as=0.0567 ps=0.69 w=0.42 l=0.15
X62 a_11763_9269# a_12047_9269# a_11982_9295# VGND sky130_fd_pr__nfet_01v8 ad=0.0684 pd=0.74 as=0.066 ps=0.745 w=0.36 l=0.15
X63 a_14265_7637# clknet_0_i_stop VPWR VPWR sky130_fd_pr__pfet_01v8_hvt ad=0.14 pd=1.28 as=0.14 ps=1.28 w=1 l=0.15
X67 w_dly_sig_n[56] w_dly_sig[55] VPWR VPWR sky130_fd_pr__pfet_01v8_hvt ad=0.135 pd=1.27 as=0.26 ps=2.52 w=1 l=0.15
X68 VGND a_9387_8983# o_result[35] VGND sky130_fd_pr__nfet_01v8 ad=0.0878 pd=0.92 as=0.0878 ps=0.92 w=0.65 l=0.15
X70 VPWR w_dly_sig_n[60] w_dly_sig[61] VPWR sky130_fd_pr__pfet_01v8_hvt ad=0.26 pd=2.52 as=0.135 ps=1.27 w=1 l=0.15
X72 VGND a_21638_12015# clknet_3_7__leaf_i_stop VGND sky130_fd_pr__nfet_01v8 ad=0.0588 pd=0.7 as=0.0588 ps=0.7 w=0.42 l=0.15
X73 a_17213_4943# a_17047_4943# VGND VGND sky130_fd_pr__nfet_01v8 ad=0.109 pd=1.36 as=0.0567 ps=0.69 w=0.42 l=0.15
X75 a_12602_9813# a_12952_9813# VPWR VPWR sky130_fd_pr__pfet_01v8_hvt ad=0.28 pd=2.56 as=0.162 ps=1.33 w=1 l=0.15
X78 a_7378_9028# a_7178_8873# a_7527_9117# VGND sky130_fd_pr__nfet_01v8 ad=0.0621 pd=0.705 as=0.0696 ps=0.765 w=0.36 l=0.15
X79 o_result[53] a_19735_13915# VPWR VPWR sky130_fd_pr__pfet_01v8_hvt ad=0.135 pd=1.27 as=0.135 ps=1.27 w=1 l=0.15
X80 VPWR a_24259_12015# a_24427_11989# VPWR sky130_fd_pr__pfet_01v8_hvt ad=0.135 pd=1.27 as=0.27 ps=2.54 w=1 l=0.15
X81 VGND a_24259_12015# a_24427_11989# VGND sky130_fd_pr__nfet_01v8 ad=0.0878 pd=0.92 as=0.169 ps=1.82 w=0.65 l=0.15
X82 VPWR a_22879_7485# a_23047_7387# VPWR sky130_fd_pr__pfet_01v8_hvt ad=0.135 pd=1.27 as=0.27 ps=2.54 w=1 l=0.15
X84 a_11881_13647# w_dly_sig[48] VGND VGND sky130_fd_pr__nfet_01v8 ad=0.0813 pd=0.83 as=0.109 ps=1.36 w=0.42 l=0.15
X85 VPWR w_dly_sig_n[41] w_dly_sig[43] VPWR sky130_fd_pr__pfet_01v8_hvt ad=0.26 pd=2.52 as=0.135 ps=1.27 w=1 l=0.15
X88 VGND clknet_3_7__leaf_i_stop a_19071_10933# VGND sky130_fd_pr__nfet_01v8 ad=0.0567 pd=0.69 as=0.109 ps=1.36 w=0.42 l=0.15
X89 VGND a_6627_7895# o_result[32] VGND sky130_fd_pr__nfet_01v8 ad=0.0878 pd=0.92 as=0.0878 ps=0.92 w=0.65 l=0.15
X93 VPWR a_17038_12015# clknet_3_6__leaf_i_stop VPWR sky130_fd_pr__pfet_01v8_hvt ad=0.14 pd=1.28 as=0.14 ps=1.28 w=1 l=0.15
X96 VGND clknet_3_7__leaf_i_stop a_19623_13109# VGND sky130_fd_pr__nfet_01v8 ad=0.0567 pd=0.69 as=0.109 ps=1.36 w=0.42 l=0.15
X98 a_15369_11305# a_14379_10933# a_15243_10927# VGND sky130_fd_pr__nfet_01v8 ad=0.066 pd=0.745 as=0.0684 ps=0.74 w=0.36 l=0.15
X99 a_7378_9028# a_7171_8969# a_7554_8751# VPWR sky130_fd_pr__pfet_01v8_hvt ad=0.0683 pd=0.745 as=0.0767 ps=0.785 w=0.42 l=0.15
X101 a_8907_11293# a_8687_11305# VGND VGND sky130_fd_pr__nfet_01v8 ad=0.0696 pd=0.765 as=0.121 ps=1.09 w=0.42 l=0.15
X102 VGND a_22622_9407# a_22580_9295# VGND sky130_fd_pr__nfet_01v8 ad=0.121 pd=1.09 as=0.0696 ps=0.765 w=0.42 l=0.15
X105 a_11931_5487# a_11067_5493# a_11674_5461# VPWR sky130_fd_pr__pfet_01v8_hvt ad=0.0567 pd=0.69 as=0.109 ps=1.08 w=0.42 l=0.15
X106 a_23063_12925# a_22365_12559# a_22806_12671# VGND sky130_fd_pr__nfet_01v8 ad=0.0684 pd=0.74 as=0.0989 ps=0.995 w=0.36 l=0.15
X107 VGND a_15262_8319# a_15220_8207# VGND sky130_fd_pr__nfet_01v8 ad=0.121 pd=1.09 as=0.0696 ps=0.765 w=0.42 l=0.15
X108 clknet_3_1__leaf_i_stop a_14265_7637# VGND VGND sky130_fd_pr__nfet_01v8 ad=0.0588 pd=0.7 as=0.0588 ps=0.7 w=0.42 l=0.15
X110 VGND w_dly_sig[46] w_dly_sig_n[46] VGND sky130_fd_pr__nfet_01v8 ad=0.169 pd=1.82 as=0.0878 ps=0.92 w=0.65 l=0.15
X111 VGND a_18942_9813# a_18900_10217# VGND sky130_fd_pr__nfet_01v8 ad=0.121 pd=1.09 as=0.0696 ps=0.765 w=0.42 l=0.15
X113 a_16293_10933# a_16127_10933# VGND VGND sky130_fd_pr__nfet_01v8 ad=0.109 pd=1.36 as=0.0567 ps=0.69 w=0.42 l=0.15
X114 w_dly_sig_n[24] w_dly_sig[24] VPWR VPWR sky130_fd_pr__pfet_01v8_hvt ad=0.135 pd=1.27 as=0.26 ps=2.52 w=1 l=0.15
X116 o_result[19] a_12602_9813# VGND VGND sky130_fd_pr__nfet_01v8 ad=0.0878 pd=0.92 as=0.0926 ps=0.935 w=0.65 l=0.15
X117 w_dly_sig_n[19] w_dly_sig[19] VPWR VPWR sky130_fd_pr__pfet_01v8_hvt ad=0.135 pd=1.27 as=0.26 ps=2.52 w=1 l=0.15
X118 VGND w_dly_sig_n[49] w_dly_sig[50] VGND sky130_fd_pr__nfet_01v8 ad=0.169 pd=1.82 as=0.0878 ps=0.92 w=0.65 l=0.15
X119 a_24259_12015# a_23395_12021# a_24002_11989# VPWR sky130_fd_pr__pfet_01v8_hvt ad=0.0567 pd=0.69 as=0.109 ps=1.08 w=0.42 l=0.15
X120 VPWR a_11550_10636# o_result[39] VPWR sky130_fd_pr__pfet_01v8_hvt ad=0.28 pd=2.56 as=0.135 ps=1.27 w=1 l=0.15
X121 a_11798_8207# a_11411_8181# VGND VGND sky130_fd_pr__nfet_01v8 ad=0.066 pd=0.745 as=0.109 ps=1.36 w=0.42 l=0.15
X122 o_result[54] a_20655_13077# VGND VGND sky130_fd_pr__nfet_01v8 ad=0.0878 pd=0.92 as=0.0878 ps=0.92 w=0.65 l=0.15
X123 a_18390_7637# a_18222_7663# VGND VGND sky130_fd_pr__nfet_01v8 ad=0.0989 pd=0.995 as=0.121 ps=1.09 w=0.64 l=0.15
X126 VPWR w_dly_sig[47] w_dly_sig_n[47] VPWR sky130_fd_pr__pfet_01v8_hvt ad=0.26 pd=2.52 as=0.135 ps=1.27 w=1 l=0.15
X127 w_dly_sig[61] w_dly_sig_n[59] VGND VGND sky130_fd_pr__nfet_01v8 ad=0.0878 pd=0.92 as=0.169 ps=1.82 w=0.65 l=0.15
X128 VPWR w_dly_sig_n[55] w_dly_sig[57] VPWR sky130_fd_pr__pfet_01v8_hvt ad=0.26 pd=2.52 as=0.135 ps=1.27 w=1 l=0.15
X130 VPWR w_dly_sig[32] w_dly_sig_n[33] VPWR sky130_fd_pr__pfet_01v8_hvt ad=0.26 pd=2.52 as=0.135 ps=1.27 w=1 l=0.15
X133 VGND w_dly_sig_n[44] w_dly_sig[46] VGND sky130_fd_pr__nfet_01v8 ad=0.169 pd=1.82 as=0.0878 ps=0.92 w=0.65 l=0.15
X134 a_10031_12533# a_10199_12533# VGND VGND sky130_fd_pr__nfet_01v8 ad=0.169 pd=1.82 as=0.0878 ps=0.92 w=0.65 l=0.15
X135 w_dly_sig_n[40] w_dly_sig[39] VPWR VPWR sky130_fd_pr__pfet_01v8_hvt ad=0.135 pd=1.27 as=0.26 ps=2.52 w=1 l=0.15
X138 clknet_3_6__leaf_i_stop a_17038_12015# VPWR VPWR sky130_fd_pr__pfet_01v8_hvt ad=0.14 pd=1.28 as=0.14 ps=1.28 w=1 l=0.15
X139 a_14917_6031# w_dly_sig[3] VPWR VPWR sky130_fd_pr__pfet_01v8_hvt ad=0.0578 pd=0.695 as=0.109 ps=1.36 w=0.42 l=0.15
X141 a_16826_13759# a_16658_14013# VGND VGND sky130_fd_pr__nfet_01v8 ad=0.0989 pd=0.995 as=0.121 ps=1.09 w=0.64 l=0.15
X142 a_7725_9129# a_7171_8969# a_7378_9028# VGND sky130_fd_pr__nfet_01v8 ad=0.0813 pd=0.83 as=0.0621 ps=0.705 w=0.36 l=0.15
X146 a_8509_10927# a_8099_11159# VPWR VPWR sky130_fd_pr__pfet_01v8_hvt ad=0.0882 pd=0.84 as=0.111 ps=1.37 w=0.42 l=0.15
X147 VPWR i_stop a_16210_9839# VPWR sky130_fd_pr__pfet_01v8_hvt ad=0.14 pd=1.28 as=0.14 ps=1.28 w=1 l=0.15
X149 a_9954_11471# clknet_0_i_stop VGND VGND sky130_fd_pr__nfet_01v8 ad=0.0588 pd=0.7 as=0.0588 ps=0.7 w=0.42 l=0.15
X151 VGND w_dly_sig_n[14] w_dly_sig[16] VGND sky130_fd_pr__nfet_01v8 ad=0.169 pd=1.82 as=0.0878 ps=0.92 w=0.65 l=0.15
X152 a_7554_8751# a_7307_9129# VPWR VPWR sky130_fd_pr__pfet_01v8_hvt ad=0.0767 pd=0.785 as=0.179 ps=1.26 w=0.42 l=0.15
X153 VPWR a_21454_8207# clknet_3_5__leaf_i_stop VPWR sky130_fd_pr__pfet_01v8_hvt ad=0.14 pd=1.28 as=0.14 ps=1.28 w=1 l=0.15
X154 VGND clknet_0_i_stop a_21454_8207# VGND sky130_fd_pr__nfet_01v8 ad=0.0588 pd=0.7 as=0.0588 ps=0.7 w=0.42 l=0.15
X155 o_result[28] a_12099_5461# VGND VGND sky130_fd_pr__nfet_01v8 ad=0.0878 pd=0.92 as=0.0878 ps=0.92 w=0.65 l=0.15
X156 VPWR w_dly_sig[13] w_dly_sig_n[13] VPWR sky130_fd_pr__pfet_01v8_hvt ad=0.26 pd=2.52 as=0.135 ps=1.27 w=1 l=0.15
X158 a_20571_13103# a_19789_13109# a_20487_13103# VPWR sky130_fd_pr__pfet_01v8_hvt ad=0.0882 pd=0.84 as=0.0567 ps=0.69 w=0.42 l=0.15
X159 a_14725_12393# a_13735_12021# a_14599_12015# VGND sky130_fd_pr__nfet_01v8 ad=0.066 pd=0.745 as=0.0684 ps=0.74 w=0.36 l=0.15
X161 VPWR a_22622_7231# a_22549_7485# VPWR sky130_fd_pr__pfet_01v8_hvt ad=0.179 pd=1.26 as=0.0767 ps=0.785 w=0.42 l=0.15
X162 VGND a_17038_12015# clknet_3_6__leaf_i_stop VGND sky130_fd_pr__nfet_01v8 ad=0.0588 pd=0.7 as=0.0588 ps=0.7 w=0.42 l=0.15
X163 VPWR w_dly_sig[59] w_dly_sig_n[59] VPWR sky130_fd_pr__pfet_01v8_hvt ad=0.26 pd=2.52 as=0.135 ps=1.27 w=1 l=0.15
X164 VPWR a_14265_7637# clknet_3_1__leaf_i_stop VPWR sky130_fd_pr__pfet_01v8_hvt ad=0.14 pd=1.28 as=0.14 ps=1.28 w=1 l=0.15
X165 VGND w_dly_sig[51] w_dly_sig_n[51] VGND sky130_fd_pr__nfet_01v8 ad=0.169 pd=1.82 as=0.0878 ps=0.92 w=0.65 l=0.15
X166 w_dly_sig[19] w_dly_sig_n[17] VPWR VPWR sky130_fd_pr__pfet_01v8_hvt ad=0.135 pd=1.27 as=0.26 ps=2.52 w=1 l=0.15
X168 w_dly_sig[51] w_dly_sig_n[50] VGND VGND sky130_fd_pr__nfet_01v8 ad=0.0878 pd=0.92 as=0.169 ps=1.82 w=0.65 l=0.15
X169 a_13198_9839# a_12602_9813# VPWR VPWR sky130_fd_pr__pfet_01v8_hvt ad=0.0913 pd=0.855 as=0.122 ps=1.42 w=0.42 l=0.15
X172 a_21911_8751# a_21463_8757# a_21817_8751# VGND sky130_fd_pr__nfet_01v8 ad=0.0594 pd=0.69 as=0.066 ps=0.745 w=0.36 l=0.15
X175 VPWR w_dly_sig_n[5] w_dly_sig[6] VPWR sky130_fd_pr__pfet_01v8_hvt ad=0.26 pd=2.52 as=0.135 ps=1.27 w=1 l=0.15
X179 a_9406_12381# a_9019_12247# VGND VGND sky130_fd_pr__nfet_01v8 ad=0.066 pd=0.745 as=0.109 ps=1.36 w=0.42 l=0.15
X180 a_23063_11837# a_22365_11471# a_22806_11583# VGND sky130_fd_pr__nfet_01v8 ad=0.0684 pd=0.74 as=0.0989 ps=0.995 w=0.36 l=0.15
X182 w_dly_sig_n[30] w_dly_sig[29] VGND VGND sky130_fd_pr__nfet_01v8 ad=0.0878 pd=0.92 as=0.169 ps=1.82 w=0.65 l=0.15
X183 a_21307_6397# a_20525_6031# a_21223_6397# VPWR sky130_fd_pr__pfet_01v8_hvt ad=0.0882 pd=0.84 as=0.0567 ps=0.69 w=0.42 l=0.15
X185 VGND a_20106_10901# o_result[59] VGND sky130_fd_pr__nfet_01v8 ad=0.0926 pd=0.935 as=0.0878 ps=0.92 w=0.65 l=0.15
X186 a_8093_10217# a_7539_10057# a_7746_10116# VGND sky130_fd_pr__nfet_01v8 ad=0.0813 pd=0.83 as=0.0621 ps=0.705 w=0.36 l=0.15
X188 VGND w_dly_sig[28] w_dly_sig_n[29] VGND sky130_fd_pr__nfet_01v8 ad=0.169 pd=1.82 as=0.0878 ps=0.92 w=0.65 l=0.15
X189 a_16841_7093# clknet_0_i_stop VPWR VPWR sky130_fd_pr__pfet_01v8_hvt ad=0.14 pd=1.28 as=0.14 ps=1.28 w=1 l=0.15
X191 clknet_3_4__leaf_i_stop a_16841_7093# VGND VGND sky130_fd_pr__nfet_01v8 ad=0.0588 pd=0.7 as=0.0588 ps=0.7 w=0.42 l=0.15
X192 clknet_3_3__leaf_i_stop a_14817_12533# VGND VGND sky130_fd_pr__nfet_01v8 ad=0.0588 pd=0.7 as=0.0588 ps=0.7 w=0.42 l=0.15
X193 VGND w_dly_sig[13] w_dly_sig_n[14] VGND sky130_fd_pr__nfet_01v8 ad=0.169 pd=1.82 as=0.0878 ps=0.92 w=0.65 l=0.15
X197 a_12047_9269# clknet_3_1__leaf_i_stop VGND VGND sky130_fd_pr__nfet_01v8 ad=0.109 pd=1.36 as=0.0567 ps=0.69 w=0.42 l=0.15
X198 w_dly_sig_n[7] w_dly_sig[6] VPWR VPWR sky130_fd_pr__pfet_01v8_hvt ad=0.135 pd=1.27 as=0.26 ps=2.52 w=1 l=0.15
X199 VPWR a_10031_12533# o_result[45] VPWR sky130_fd_pr__pfet_01v8_hvt ad=0.135 pd=1.27 as=0.135 ps=1.27 w=1 l=0.15
X200 VPWR w_dly_sig[36] w_dly_sig_n[37] VPWR sky130_fd_pr__pfet_01v8_hvt ad=0.26 pd=2.52 as=0.135 ps=1.27 w=1 l=0.15
X201 a_8210_6941# a_7823_6807# VGND VGND sky130_fd_pr__nfet_01v8 ad=0.066 pd=0.745 as=0.109 ps=1.36 w=0.42 l=0.15
X203 VGND w_dly_sig[18] w_dly_sig_n[19] VGND sky130_fd_pr__nfet_01v8 ad=0.169 pd=1.82 as=0.0878 ps=0.92 w=0.65 l=0.15
X204 o_result[22] a_11411_8181# VGND VGND sky130_fd_pr__nfet_01v8 ad=0.0878 pd=0.92 as=0.169 ps=1.82 w=0.65 l=0.15
X207 a_19567_14013# a_18703_13647# a_19310_13759# VPWR sky130_fd_pr__pfet_01v8_hvt ad=0.0567 pd=0.69 as=0.109 ps=1.08 w=0.42 l=0.15
X209 a_21625_12559# a_20635_12559# a_21499_12925# VGND sky130_fd_pr__nfet_01v8 ad=0.066 pd=0.745 as=0.0684 ps=0.74 w=0.36 l=0.15
X211 o_result[2] a_15595_6299# VGND VGND sky130_fd_pr__nfet_01v8 ad=0.0878 pd=0.92 as=0.0878 ps=0.92 w=0.65 l=0.15
X213 clknet_0_i_stop a_16210_9839# VGND VGND sky130_fd_pr__nfet_01v8 ad=0.0588 pd=0.7 as=0.0588 ps=0.7 w=0.42 l=0.15
X214 a_19237_14013# a_18703_13647# a_19142_14013# VPWR sky130_fd_pr__pfet_01v8_hvt ad=0.0767 pd=0.785 as=0.0683 ps=0.745 w=0.42 l=0.15
X215 VPWR w_dly_sig_n[12] w_dly_sig[13] VPWR sky130_fd_pr__pfet_01v8_hvt ad=0.26 pd=2.52 as=0.135 ps=1.27 w=1 l=0.15
X216 clknet_3_0__leaf_i_stop a_9113_7637# VPWR VPWR sky130_fd_pr__pfet_01v8_hvt ad=0.14 pd=1.28 as=0.14 ps=1.28 w=1 l=0.15
X217 VGND a_16734_7637# a_16692_8041# VGND sky130_fd_pr__nfet_01v8 ad=0.121 pd=1.09 as=0.0696 ps=0.765 w=0.42 l=0.15
X220 w_dly_sig[6] w_dly_sig_n[5] VGND VGND sky130_fd_pr__nfet_01v8 ad=0.0878 pd=0.92 as=0.169 ps=1.82 w=0.65 l=0.15
X221 VPWR w_dly_sig_n[8] w_dly_sig[9] VPWR sky130_fd_pr__pfet_01v8_hvt ad=0.26 pd=2.52 as=0.135 ps=1.27 w=1 l=0.15
X222 VGND a_17251_13915# a_17209_13647# VGND sky130_fd_pr__nfet_01v8 ad=0.109 pd=1.36 as=0.066 ps=0.745 w=0.42 l=0.15
X225 VPWR w_dly_sig_n[40] w_dly_sig[42] VPWR sky130_fd_pr__pfet_01v8_hvt ad=0.26 pd=2.52 as=0.135 ps=1.27 w=1 l=0.15
X226 a_13514_14165# a_13346_14191# VGND VGND sky130_fd_pr__nfet_01v8 ad=0.0989 pd=0.995 as=0.121 ps=1.09 w=0.64 l=0.15
X229 VGND a_23231_12827# o_result[55] VGND sky130_fd_pr__nfet_01v8 ad=0.169 pd=1.82 as=0.0878 ps=0.92 w=0.65 l=0.15
X231 a_11487_11159# a_11778_11049# a_11729_10927# VPWR sky130_fd_pr__pfet_01v8_hvt ad=0.0567 pd=0.69 as=0.0882 ps=0.84 w=0.42 l=0.15
X232 VGND w_dly_sig_n[13] w_dly_sig[14] VGND sky130_fd_pr__nfet_01v8 ad=0.169 pd=1.82 as=0.0878 ps=0.92 w=0.65 l=0.15
X233 VPWR w_dly_sig[26] a_15637_7119# VPWR sky130_fd_pr__pfet_01v8_hvt ad=0.109 pd=1.36 as=0.0578 ps=0.695 w=0.42 l=0.15
X234 VPWR a_18079_10651# a_17995_10749# VPWR sky130_fd_pr__pfet_01v8_hvt ad=0.111 pd=1.37 as=0.0882 ps=0.84 w=0.42 l=0.15
X235 a_11122_10519# a_10963_10749# VPWR VPWR sky130_fd_pr__pfet_01v8_hvt ad=0.109 pd=1.08 as=0.179 ps=1.26 w=0.75 l=0.15
X236 o_result[49] a_15503_14165# VPWR VPWR sky130_fd_pr__pfet_01v8_hvt ad=0.135 pd=1.27 as=0.135 ps=1.27 w=1 l=0.15
X237 a_22369_9295# w_dly_sig[64] VGND VGND sky130_fd_pr__nfet_01v8 ad=0.0813 pd=0.83 as=0.109 ps=1.36 w=0.42 l=0.15
X238 VPWR net1 w_dly_sig_n[0] VPWR sky130_fd_pr__pfet_01v8_hvt ad=0.26 pd=2.52 as=0.135 ps=1.27 w=1 l=0.15
X239 VPWR a_23542_10901# a_23469_10927# VPWR sky130_fd_pr__pfet_01v8_hvt ad=0.179 pd=1.26 as=0.0767 ps=0.785 w=0.42 l=0.15
X240 VGND w_dly_sig_n[43] w_dly_sig[45] VGND sky130_fd_pr__nfet_01v8 ad=0.169 pd=1.82 as=0.0878 ps=0.92 w=0.65 l=0.15
X243 a_8275_6793# clknet_3_0__leaf_i_stop VPWR VPWR sky130_fd_pr__pfet_01v8_hvt ad=0.166 pd=1.8 as=0.0864 ps=0.91 w=0.64 l=0.15
X244 VGND a_21223_6397# a_21391_6299# VGND sky130_fd_pr__nfet_01v8 ad=0.0878 pd=0.92 as=0.169 ps=1.82 w=0.65 l=0.15
X247 VGND a_8551_11145# a_8558_11049# VGND sky130_fd_pr__nfet_01v8 ad=0.0567 pd=0.69 as=0.109 ps=1.36 w=0.42 l=0.15
X248 VGND clknet_0_i_stop a_14265_7637# VGND sky130_fd_pr__nfet_01v8 ad=0.0588 pd=0.7 as=0.0588 ps=0.7 w=0.42 l=0.15
X250 w_dly_sig[28] w_dly_sig_n[27] VGND VGND sky130_fd_pr__nfet_01v8 ad=0.0878 pd=0.92 as=0.169 ps=1.82 w=0.65 l=0.15
X251 VPWR a_9954_11471# clknet_3_2__leaf_i_stop VPWR sky130_fd_pr__pfet_01v8_hvt ad=0.138 pd=1.27 as=0.14 ps=1.28 w=1 l=0.15
X252 VPWR w_dly_sig_n[9] w_dly_sig[10] VPWR sky130_fd_pr__pfet_01v8_hvt ad=0.26 pd=2.52 as=0.135 ps=1.27 w=1 l=0.15
X253 a_12061_6031# a_11895_6031# VGND VGND sky130_fd_pr__nfet_01v8 ad=0.109 pd=1.36 as=0.0567 ps=0.69 w=0.42 l=0.15
X256 VPWR w_dly_sig_n[40] w_dly_sig[41] VPWR sky130_fd_pr__pfet_01v8_hvt ad=0.26 pd=2.52 as=0.135 ps=1.27 w=1 l=0.15
X257 VPWR a_11319_11159# o_result[40] VPWR sky130_fd_pr__pfet_01v8_hvt ad=0.135 pd=1.27 as=0.135 ps=1.27 w=1 l=0.15
X259 VPWR a_14817_12533# clknet_3_3__leaf_i_stop VPWR sky130_fd_pr__pfet_01v8_hvt ad=0.138 pd=1.27 as=0.14 ps=1.28 w=1 l=0.15
X260 a_7725_9129# a_7178_8873# a_7378_9028# VPWR sky130_fd_pr__pfet_01v8_hvt ad=0.0578 pd=0.695 as=0.0683 ps=0.745 w=0.42 l=0.15
X261 w_dly_sig_n[23] w_dly_sig[22] VPWR VPWR sky130_fd_pr__pfet_01v8_hvt ad=0.135 pd=1.27 as=0.26 ps=2.52 w=1 l=0.15
X262 w_dly_sig_n[14] w_dly_sig[13] VPWR VPWR sky130_fd_pr__pfet_01v8_hvt ad=0.135 pd=1.27 as=0.26 ps=2.52 w=1 l=0.15
X264 VPWR clknet_0_i_stop a_14817_12533# VPWR sky130_fd_pr__pfet_01v8_hvt ad=0.14 pd=1.28 as=0.14 ps=1.28 w=1 l=0.15
X266 a_15419_14191# a_14637_14197# a_15335_14191# VPWR sky130_fd_pr__pfet_01v8_hvt ad=0.0882 pd=0.84 as=0.0567 ps=0.69 w=0.42 l=0.15
X267 VPWR a_9747_8181# a_9754_8481# VPWR sky130_fd_pr__pfet_01v8_hvt ad=0.0864 pd=0.91 as=0.166 ps=1.8 w=0.64 l=0.15
X268 VGND a_13895_5719# o_result[1] VGND sky130_fd_pr__nfet_01v8 ad=0.0878 pd=0.92 as=0.0878 ps=0.92 w=0.65 l=0.15
X269 VGND a_21499_12925# a_21667_12827# VGND sky130_fd_pr__nfet_01v8 ad=0.0878 pd=0.92 as=0.169 ps=1.82 w=0.65 l=0.15
X270 VGND w_dly_sig[19] w_dly_sig_n[20] VGND sky130_fd_pr__nfet_01v8 ad=0.169 pd=1.82 as=0.0878 ps=0.92 w=0.65 l=0.15
X271 VGND w_dly_sig_n[16] w_dly_sig[17] VGND sky130_fd_pr__nfet_01v8 ad=0.169 pd=1.82 as=0.0878 ps=0.92 w=0.65 l=0.15
X272 VGND w_dly_sig[14] w_dly_sig_n[15] VGND sky130_fd_pr__nfet_01v8 ad=0.169 pd=1.82 as=0.0878 ps=0.92 w=0.65 l=0.15
X278 VPWR w_dly_sig_n[46] w_dly_sig[48] VPWR sky130_fd_pr__pfet_01v8_hvt ad=0.26 pd=2.52 as=0.135 ps=1.27 w=1 l=0.15
X279 clknet_0_i_stop a_16210_9839# VPWR VPWR sky130_fd_pr__pfet_01v8_hvt ad=0.14 pd=1.28 as=0.14 ps=1.28 w=1 l=0.15
X281 VPWR w_dly_sig[36] a_10393_9129# VPWR sky130_fd_pr__pfet_01v8_hvt ad=0.109 pd=1.36 as=0.0578 ps=0.695 w=0.42 l=0.15
X283 VGND a_23231_11739# o_result[60] VGND sky130_fd_pr__nfet_01v8 ad=0.169 pd=1.82 as=0.0878 ps=0.92 w=0.65 l=0.15
X284 VPWR clknet_3_4__leaf_i_stop a_16219_8757# VPWR sky130_fd_pr__pfet_01v8_hvt ad=0.0864 pd=0.91 as=0.166 ps=1.8 w=0.64 l=0.15
X285 a_11579_8181# a_11863_8181# a_11798_8207# VGND sky130_fd_pr__nfet_01v8 ad=0.0684 pd=0.74 as=0.066 ps=0.745 w=0.36 l=0.15
X286 w_dly_sig_n[10] w_dly_sig[10] VPWR VPWR sky130_fd_pr__pfet_01v8_hvt ad=0.135 pd=1.27 as=0.26 ps=2.52 w=1 l=0.15
X289 VPWR clknet_3_5__leaf_i_stop a_19807_8207# VPWR sky130_fd_pr__pfet_01v8_hvt ad=0.0864 pd=0.91 as=0.166 ps=1.8 w=0.64 l=0.15
X290 VGND w_dly_sig[25] w_dly_sig_n[25] VGND sky130_fd_pr__nfet_01v8 ad=0.169 pd=1.82 as=0.0878 ps=0.92 w=0.65 l=0.15
X293 VPWR w_dly_sig_n[57] w_dly_sig[58] VPWR sky130_fd_pr__pfet_01v8_hvt ad=0.26 pd=2.52 as=0.135 ps=1.27 w=1 l=0.15
X296 a_16573_13647# w_dly_sig[51] VPWR VPWR sky130_fd_pr__pfet_01v8_hvt ad=0.0578 pd=0.695 as=0.109 ps=1.36 w=0.42 l=0.15
X297 w_dly_sig_n[38] w_dly_sig[38] VPWR VPWR sky130_fd_pr__pfet_01v8_hvt ad=0.135 pd=1.27 as=0.26 ps=2.52 w=1 l=0.15
X298 w_dly_sig_n[26] w_dly_sig[26] VGND VGND sky130_fd_pr__nfet_01v8 ad=0.0878 pd=0.92 as=0.169 ps=1.82 w=0.65 l=0.15
X299 w_dly_sig_n[62] w_dly_sig[62] VPWR VPWR sky130_fd_pr__pfet_01v8_hvt ad=0.135 pd=1.27 as=0.26 ps=2.52 w=1 l=0.15
X300 a_13679_10927# a_12981_10933# a_13422_10901# VGND sky130_fd_pr__nfet_01v8 ad=0.0684 pd=0.74 as=0.0989 ps=0.995 w=0.36 l=0.15
X304 a_13254_10927# a_12815_10933# a_13169_10927# VGND sky130_fd_pr__nfet_01v8 ad=0.0621 pd=0.705 as=0.0813 ps=0.83 w=0.36 l=0.15
X306 o_result[15] a_19367_9813# VPWR VPWR sky130_fd_pr__pfet_01v8_hvt ad=0.135 pd=1.27 as=0.135 ps=1.27 w=1 l=0.15
X307 VGND a_14767_11989# a_14725_12393# VGND sky130_fd_pr__nfet_01v8 ad=0.109 pd=1.36 as=0.066 ps=0.745 w=0.42 l=0.15
X308 a_16566_6397# a_16127_6031# a_16481_6031# VGND sky130_fd_pr__nfet_01v8 ad=0.0621 pd=0.705 as=0.0813 ps=0.83 w=0.36 l=0.15
X309 VPWR w_dly_sig_n[23] w_dly_sig[24] VPWR sky130_fd_pr__pfet_01v8_hvt ad=0.26 pd=2.52 as=0.135 ps=1.27 w=1 l=0.15
X311 VGND a_17654_11583# a_17612_11471# VGND sky130_fd_pr__nfet_01v8 ad=0.121 pd=1.09 as=0.0696 ps=0.765 w=0.42 l=0.15
X312 w_dly_sig_n[34] w_dly_sig[34] VPWR VPWR sky130_fd_pr__pfet_01v8_hvt ad=0.135 pd=1.27 as=0.26 ps=2.52 w=1 l=0.15
X313 VGND w_dly_sig_n[60] w_dly_sig[62] VGND sky130_fd_pr__nfet_01v8 ad=0.169 pd=1.82 as=0.0878 ps=0.92 w=0.65 l=0.15
X314 VGND w_dly_sig[35] w_dly_sig_n[35] VGND sky130_fd_pr__nfet_01v8 ad=0.169 pd=1.82 as=0.0878 ps=0.92 w=0.65 l=0.15
X316 o_result[29] a_9019_6005# VGND VGND sky130_fd_pr__nfet_01v8 ad=0.0878 pd=0.92 as=0.169 ps=1.82 w=0.65 l=0.15
X318 VPWR w_dly_sig_n[34] w_dly_sig[36] VPWR sky130_fd_pr__pfet_01v8_hvt ad=0.26 pd=2.52 as=0.135 ps=1.27 w=1 l=0.15
X319 a_8093_10217# a_7546_9961# a_7746_10116# VPWR sky130_fd_pr__pfet_01v8_hvt ad=0.0578 pd=0.695 as=0.0683 ps=0.745 w=0.42 l=0.15
X320 a_18390_7637# a_18222_7663# VPWR VPWR sky130_fd_pr__pfet_01v8_hvt ad=0.109 pd=1.08 as=0.179 ps=1.26 w=0.75 l=0.15
X321 _64_.X a_16088_4917# VGND VGND sky130_fd_pr__nfet_01v8 ad=0.0878 pd=0.92 as=0.172 ps=1.83 w=0.65 l=0.15
X325 VGND a_9678_6005# a_9607_6031# VGND sky130_fd_pr__nfet_01v8 ad=0.121 pd=1.09 as=0.0989 ps=0.995 w=0.64 l=0.15
X328 w_dly_sig_n[48] w_dly_sig[47] VPWR VPWR sky130_fd_pr__pfet_01v8_hvt ad=0.135 pd=1.27 as=0.26 ps=2.52 w=1 l=0.15
X329 w_dly_sig[43] w_dly_sig_n[41] VPWR VPWR sky130_fd_pr__pfet_01v8_hvt ad=0.135 pd=1.27 as=0.26 ps=2.52 w=1 l=0.15
X330 VGND w_dly_sig_n[24] w_dly_sig[26] VGND sky130_fd_pr__nfet_01v8 ad=0.169 pd=1.82 as=0.0878 ps=0.92 w=0.65 l=0.15
X331 w_dly_sig_n[5] w_dly_sig[4] VGND VGND sky130_fd_pr__nfet_01v8 ad=0.0878 pd=0.92 as=0.169 ps=1.82 w=0.65 l=0.15
X334 a_14733_10927# w_dly_sig[19] VGND VGND sky130_fd_pr__nfet_01v8 ad=0.0813 pd=0.83 as=0.109 ps=1.36 w=0.42 l=0.15
X337 a_16481_7663# w_dly_sig[25] VGND VGND sky130_fd_pr__nfet_01v8 ad=0.0813 pd=0.83 as=0.109 ps=1.36 w=0.42 l=0.15
X341 clknet_3_1__leaf_i_stop a_14265_7637# VGND VGND sky130_fd_pr__nfet_01v8 ad=0.0588 pd=0.7 as=0.0588 ps=0.7 w=0.42 l=0.15
X345 VPWR w_dly_sig_n[3] w_dly_sig[4] VPWR sky130_fd_pr__pfet_01v8_hvt ad=0.26 pd=2.52 as=0.135 ps=1.27 w=1 l=0.15
X346 w_dly_sig_n[33] w_dly_sig[33] VGND VGND sky130_fd_pr__nfet_01v8 ad=0.0878 pd=0.92 as=0.169 ps=1.82 w=0.65 l=0.15
X348 o_result[56] a_21667_12827# VPWR VPWR sky130_fd_pr__pfet_01v8_hvt ad=0.135 pd=1.27 as=0.135 ps=1.27 w=1 l=0.15
X351 w_dly_sig[50] w_dly_sig_n[48] VGND VGND sky130_fd_pr__nfet_01v8 ad=0.0878 pd=0.92 as=0.169 ps=1.82 w=0.65 l=0.15
X352 a_19519_10927# a_19071_10933# a_19425_10927# VGND sky130_fd_pr__nfet_01v8 ad=0.0594 pd=0.69 as=0.066 ps=0.745 w=0.36 l=0.15
X353 VGND w_dly_sig_n[21] w_dly_sig[23] VGND sky130_fd_pr__nfet_01v8 ad=0.169 pd=1.82 as=0.0878 ps=0.92 w=0.65 l=0.15
X354 w_dly_sig_n[46] w_dly_sig[46] VGND VGND sky130_fd_pr__nfet_01v8 ad=0.0878 pd=0.92 as=0.169 ps=1.82 w=0.65 l=0.15
X355 clknet_3_6__leaf_i_stop a_17038_12015# VGND VGND sky130_fd_pr__nfet_01v8 ad=0.0588 pd=0.7 as=0.0588 ps=0.7 w=0.42 l=0.15
X356 a_9105_11305# a_8558_11049# a_8758_11204# VPWR sky130_fd_pr__pfet_01v8_hvt ad=0.0578 pd=0.695 as=0.0683 ps=0.745 w=0.42 l=0.15
X357 VPWR a_14875_11837# a_15043_11739# VPWR sky130_fd_pr__pfet_01v8_hvt ad=0.135 pd=1.27 as=0.27 ps=2.54 w=1 l=0.15
X358 VGND clknet_3_6__leaf_i_stop a_16127_10933# VGND sky130_fd_pr__nfet_01v8 ad=0.0567 pd=0.69 as=0.109 ps=1.36 w=0.42 l=0.15
X359 a_6795_7895# a_7079_7881# a_7014_8029# VGND sky130_fd_pr__nfet_01v8 ad=0.0684 pd=0.74 as=0.066 ps=0.745 w=0.36 l=0.15
X360 VPWR a_13847_10901# a_13763_10927# VPWR sky130_fd_pr__pfet_01v8_hvt ad=0.111 pd=1.37 as=0.0882 ps=0.84 w=0.42 l=0.15
X361 VGND a_21454_8207# clknet_3_5__leaf_i_stop VGND sky130_fd_pr__nfet_01v8 ad=0.111 pd=1.37 as=0.0588 ps=0.7 w=0.42 l=0.15
X362 w_dly_sig[31] w_dly_sig_n[29] VGND VGND sky130_fd_pr__nfet_01v8 ad=0.0878 pd=0.92 as=0.169 ps=1.82 w=0.65 l=0.15
X363 a_9429_6397# a_9019_6005# VPWR VPWR sky130_fd_pr__pfet_01v8_hvt ad=0.0882 pd=0.84 as=0.111 ps=1.37 w=0.42 l=0.15
X364 VPWR a_20487_13103# a_20655_13077# VPWR sky130_fd_pr__pfet_01v8_hvt ad=0.135 pd=1.27 as=0.27 ps=2.54 w=1 l=0.15
X365 o_result[23] a_15687_8475# VPWR VPWR sky130_fd_pr__pfet_01v8_hvt ad=0.135 pd=1.27 as=0.135 ps=1.27 w=1 l=0.15
X367 VGND a_20487_13103# a_20655_13077# VGND sky130_fd_pr__nfet_01v8 ad=0.0878 pd=0.92 as=0.169 ps=1.82 w=0.65 l=0.15
X369 o_result[14] a_17251_8725# VPWR VPWR sky130_fd_pr__pfet_01v8_hvt ad=0.135 pd=1.27 as=0.135 ps=1.27 w=1 l=0.15
X371 w_dly_sig_n[47] w_dly_sig[47] VPWR VPWR sky130_fd_pr__pfet_01v8_hvt ad=0.135 pd=1.27 as=0.26 ps=2.52 w=1 l=0.15
X372 VGND a_23967_9813# o_result[62] VGND sky130_fd_pr__nfet_01v8 ad=0.169 pd=1.82 as=0.0878 ps=0.92 w=0.65 l=0.15
X373 a_16692_6031# a_16293_6031# a_16566_6397# VGND sky130_fd_pr__nfet_01v8 ad=0.0696 pd=0.765 as=0.0621 ps=0.705 w=0.36 l=0.15
X374 VGND w_dly_sig[45] w_dly_sig_n[46] VGND sky130_fd_pr__nfet_01v8 ad=0.169 pd=1.82 as=0.0878 ps=0.92 w=0.65 l=0.15
X376 w_dly_sig_n[43] w_dly_sig[42] VGND VGND sky130_fd_pr__nfet_01v8 ad=0.0878 pd=0.92 as=0.169 ps=1.82 w=0.65 l=0.15
X377 o_result[16] a_18079_10651# VGND VGND sky130_fd_pr__nfet_01v8 ad=0.0878 pd=0.92 as=0.0878 ps=0.92 w=0.65 l=0.15
X378 a_17535_12925# a_16753_12559# a_17451_12925# VPWR sky130_fd_pr__pfet_01v8_hvt ad=0.0882 pd=0.84 as=0.0567 ps=0.69 w=0.42 l=0.15
X379 a_17038_12015# clknet_0_i_stop VPWR VPWR sky130_fd_pr__pfet_01v8_hvt ad=0.14 pd=1.28 as=0.14 ps=1.28 w=1 l=0.15
X381 VPWR w_dly_sig[27] w_dly_sig_n[28] VPWR sky130_fd_pr__pfet_01v8_hvt ad=0.26 pd=2.52 as=0.135 ps=1.27 w=1 l=0.15
X382 w_dly_sig[46] w_dly_sig_n[44] VGND VGND sky130_fd_pr__nfet_01v8 ad=0.0878 pd=0.92 as=0.169 ps=1.82 w=0.65 l=0.15
X383 a_7087_10071# a_7255_10071# VPWR VPWR sky130_fd_pr__pfet_01v8_hvt ad=0.27 pd=2.54 as=0.135 ps=1.27 w=1 l=0.15
X384 a_23101_9845# a_22935_9845# VPWR VPWR sky130_fd_pr__pfet_01v8_hvt ad=0.166 pd=1.8 as=0.0864 ps=0.91 w=0.64 l=0.15
X386 a_19310_13759# a_19142_14013# VPWR VPWR sky130_fd_pr__pfet_01v8_hvt ad=0.109 pd=1.08 as=0.179 ps=1.26 w=0.75 l=0.15
X388 VGND a_21454_8207# clknet_3_5__leaf_i_stop VGND sky130_fd_pr__nfet_01v8 ad=0.0588 pd=0.7 as=0.0588 ps=0.7 w=0.42 l=0.15
X389 VPWR w_dly_sig_n[46] w_dly_sig[47] VPWR sky130_fd_pr__pfet_01v8_hvt ad=0.26 pd=2.52 as=0.135 ps=1.27 w=1 l=0.15
X390 VPWR w_dly_sig[1] w_dly_sig_n[2] VPWR sky130_fd_pr__pfet_01v8_hvt ad=0.26 pd=2.52 as=0.135 ps=1.27 w=1 l=0.15