* PEX produced on Fri Mar 15 07:13:16 PM CET 2024 using /foss/tools/osic-multitool/iic-pex.sh with m=1 and s=1
* NGSPICE file created from tdc.ext - technology: sky130A

.subckt tdc i_start i_stop o_result[0] o_result[14] o_result[16] o_result[19] o_result[20]
+ o_result[21] o_result[22] o_result[23] o_result[24] o_result[25] o_result[26] o_result[27]
+ o_result[28] o_result[2] o_result[32] o_result[35] o_result[37] o_result[38] o_result[3]
+ o_result[40] o_result[41] o_result[42] o_result[43] o_result[44] o_result[45] o_result[49]
+ o_result[50] o_result[51] o_result[53] o_result[54] o_result[56] o_result[57] o_result[59]
+ o_result[5] o_result[60] o_result[61] o_result[62] o_result[6] o_result[7] o_result[8]
+ o_result[46] o_result[11] o_result[48] o_result[29] o_result[34] o_result[31] o_result[13]
+ o_result[18] o_result[10] o_result[58] o_result[63] o_result[55] o_result[47] o_result[52]
+ o_result[39] o_result[36] o_result[33] o_result[30] o_result[15] o_result[12] o_result[17]
+ o_result[4] o_result[9] VPWR o_result[1] VGND
X0 VPWR a_15319_10901# o_result[55] VPWR sky130_fd_pr__pfet_01v8_hvt ad=0.26 pd=2.52 as=0.135 ps=1.27 w=1 l=0.15
X1 VPWR clknet_3_0__leaf_i_stop a_8767_6581# VPWR sky130_fd_pr__pfet_01v8_hvt ad=0.0864 pd=0.91 as=0.166 ps=1.8 w=0.64 l=0.15
X2 a_18298_11989# a_18130_12015# VPWR VPWR sky130_fd_pr__pfet_01v8_hvt ad=0.109 pd=1.08 as=0.179 ps=1.26 w=0.75 l=0.15
X8 o_result[32] a_11639_12827# VPWR VPWR sky130_fd_pr__pfet_01v8_hvt ad=0.135 pd=1.27 as=0.135 ps=1.27 w=1 l=0.15
X9 VPWR a_21023_11739# o_result[60] VPWR sky130_fd_pr__pfet_01v8_hvt ad=0.26 pd=2.52 as=0.135 ps=1.27 w=1 l=0.15
X10 VPWR w_dly_sig[40] a_13262_10217# VPWR sky130_fd_pr__pfet_01v8_hvt ad=0.109 pd=1.36 as=0.0672 ps=0.74 w=0.42 l=0.15
X12 a_18130_12015# a_17857_12021# a_18045_12015# VPWR sky130_fd_pr__pfet_01v8_hvt ad=0.0683 pd=0.745 as=0.0578 ps=0.695 w=0.42 l=0.15
X13 VGND a_14894_10901# a_14852_11305# VGND sky130_fd_pr__nfet_01v8 ad=0.121 pd=1.09 as=0.0696 ps=0.765 w=0.42 l=0.15
X14 VGND a_20138_7637# a_20096_8041# VGND sky130_fd_pr__nfet_01v8 ad=0.121 pd=1.09 as=0.0696 ps=0.765 w=0.42 l=0.15
X16 VGND a_13295_11989# a_13253_12393# VGND sky130_fd_pr__nfet_01v8 ad=0.109 pd=1.36 as=0.066 ps=0.745 w=0.42 l=0.15
X17 VGND a_14599_9839# a_14767_9813# VGND sky130_fd_pr__nfet_01v8 ad=0.0878 pd=0.92 as=0.169 ps=1.82 w=0.65 l=0.15
X21 w_dly_sig_n[11] w_dly_sig[11] VGND VGND sky130_fd_pr__nfet_01v8 ad=0.0878 pd=0.92 as=0.169 ps=1.82 w=0.65 l=0.15
X22 a_21633_7663# w_dly_sig[9] VGND VGND sky130_fd_pr__nfet_01v8 ad=0.0813 pd=0.83 as=0.109 ps=1.36 w=0.42 l=0.15
X26 VGND a_17159_8725# o_result[42] VGND sky130_fd_pr__nfet_01v8 ad=0.169 pd=1.82 as=0.0878 ps=0.92 w=0.65 l=0.15
X29 w_dly_sig_n[0] net1 VPWR VPWR sky130_fd_pr__pfet_01v8_hvt ad=0.135 pd=1.27 as=0.26 ps=2.52 w=1 l=0.15
X30 VPWR a_9389_11445# clknet_3_2__leaf_i_stop VPWR sky130_fd_pr__pfet_01v8_hvt ad=0.138 pd=1.27 as=0.14 ps=1.28 w=1 l=0.15
X31 VGND a_18539_10901# a_18497_11305# VGND sky130_fd_pr__nfet_01v8 ad=0.109 pd=1.36 as=0.066 ps=0.745 w=0.42 l=0.15
X32 VGND w_dly_sig_n[41] w_dly_sig[42] VGND sky130_fd_pr__nfet_01v8 ad=0.169 pd=1.82 as=0.0878 ps=0.92 w=0.65 l=0.15
X33 clknet_0_i_stop a_16197_9813# VGND VGND sky130_fd_pr__nfet_01v8 ad=0.0588 pd=0.7 as=0.0588 ps=0.7 w=0.42 l=0.15
X34 a_11694_9661# a_11447_9295# VPWR VPWR sky130_fd_pr__pfet_01v8_hvt ad=0.0767 pd=0.785 as=0.179 ps=1.26 w=0.42 l=0.15
X35 w_dly_sig_n[37] w_dly_sig[37] VPWR VPWR sky130_fd_pr__pfet_01v8_hvt ad=0.135 pd=1.27 as=0.26 ps=2.52 w=1 l=0.15
X36 clknet_3_5__leaf_i_stop a_21822_8207# VPWR VPWR sky130_fd_pr__pfet_01v8_hvt ad=0.14 pd=1.28 as=0.14 ps=1.28 w=1 l=0.15
X37 a_19329_6581# a_19163_6581# VGND VGND sky130_fd_pr__nfet_01v8 ad=0.109 pd=1.36 as=0.0567 ps=0.69 w=0.42 l=0.15
X39 a_20295_10927# a_19513_10933# a_20211_10927# VPWR sky130_fd_pr__pfet_01v8_hvt ad=0.0882 pd=0.84 as=0.0567 ps=0.69 w=0.42 l=0.15
X40 VGND w_dly_sig[40] w_dly_sig_n[40] VGND sky130_fd_pr__nfet_01v8 ad=0.169 pd=1.82 as=0.0878 ps=0.92 w=0.65 l=0.15
X44 VGND w_dly_sig[54] w_dly_sig_n[54] VGND sky130_fd_pr__nfet_01v8 ad=0.169 pd=1.82 as=0.0878 ps=0.92 w=0.65 l=0.15
X45 a_15649_6397# a_15115_6031# a_15554_6397# VPWR sky130_fd_pr__pfet_01v8_hvt ad=0.0767 pd=0.785 as=0.0683 ps=0.745 w=0.42 l=0.15
X46 a_15036_9129# a_14637_8757# a_14910_8751# VGND sky130_fd_pr__nfet_01v8 ad=0.0696 pd=0.765 as=0.0621 ps=0.705 w=0.36 l=0.15
X48 a_8946_8207# a_8559_8181# VGND VGND sky130_fd_pr__nfet_01v8 ad=0.066 pd=0.745 as=0.109 ps=1.36 w=0.42 l=0.15
X51 VPWR a_14691_12015# a_14859_11989# VPWR sky130_fd_pr__pfet_01v8_hvt ad=0.135 pd=1.27 as=0.27 ps=2.54 w=1 l=0.15
X54 VGND a_21822_8207# clknet_3_5__leaf_i_stop VGND sky130_fd_pr__nfet_01v8 ad=0.0588 pd=0.7 as=0.0588 ps=0.7 w=0.42 l=0.15
X57 VPWR a_9111_13335# o_result[31] VPWR sky130_fd_pr__pfet_01v8_hvt ad=0.135 pd=1.27 as=0.135 ps=1.27 w=1 l=0.15
X59 clknet_3_3__leaf_i_stop a_14449_11445# VPWR VPWR sky130_fd_pr__pfet_01v8_hvt ad=0.14 pd=1.28 as=0.14 ps=1.28 w=1 l=0.15
X61 a_14174_6575# a_13901_6581# a_14089_6575# VPWR sky130_fd_pr__pfet_01v8_hvt ad=0.0683 pd=0.745 as=0.0578 ps=0.695 w=0.42 l=0.15
X62 VGND clknet_3_4__leaf_i_stop a_17967_7669# VGND sky130_fd_pr__nfet_01v8 ad=0.0567 pd=0.69 as=0.109 ps=1.36 w=0.42 l=0.15
X64 a_17359_10749# a_16495_10383# a_17102_10495# VPWR sky130_fd_pr__pfet_01v8_hvt ad=0.0567 pd=0.69 as=0.109 ps=1.08 w=0.42 l=0.15
X65 a_14637_8757# a_14471_8757# VGND VGND sky130_fd_pr__nfet_01v8 ad=0.109 pd=1.36 as=0.0567 ps=0.69 w=0.42 l=0.15
X67 VPWR clknet_3_7__leaf_i_stop a_19991_11471# VPWR sky130_fd_pr__pfet_01v8_hvt ad=0.0864 pd=0.91 as=0.166 ps=1.8 w=0.64 l=0.15
X68 a_12023_10927# a_11159_10933# a_11766_10901# VPWR sky130_fd_pr__pfet_01v8_hvt ad=0.0567 pd=0.69 as=0.109 ps=1.08 w=0.42 l=0.15
X70 VGND a_14817_7093# clknet_3_1__leaf_i_stop VGND sky130_fd_pr__nfet_01v8 ad=0.0588 pd=0.7 as=0.0588 ps=0.7 w=0.42 l=0.15
X73 VGND a_16197_9813# clknet_0_i_stop VGND sky130_fd_pr__nfet_01v8 ad=0.0588 pd=0.7 as=0.0588 ps=0.7 w=0.42 l=0.15
X74 clknet_3_4__leaf_i_stop a_16854_8207# VPWR VPWR sky130_fd_pr__pfet_01v8_hvt ad=0.14 pd=1.28 as=0.138 ps=1.27 w=1 l=0.15
X75 VPWR a_12835_6549# o_result[19] VPWR sky130_fd_pr__pfet_01v8_hvt ad=0.26 pd=2.52 as=0.135 ps=1.27 w=1 l=0.15
X77 VPWR a_9665_7093# clknet_3_0__leaf_i_stop VPWR sky130_fd_pr__pfet_01v8_hvt ad=0.138 pd=1.27 as=0.14 ps=1.28 w=1 l=0.15
X78 o_result[45] a_20566_10636# VPWR VPWR sky130_fd_pr__pfet_01v8_hvt ad=0.135 pd=1.27 as=0.142 ps=1.28 w=1 l=0.15
X81 VGND w_dly_sig_n[28] w_dly_sig[29] VGND sky130_fd_pr__nfet_01v8 ad=0.169 pd=1.82 as=0.0878 ps=0.92 w=0.65 l=0.15
X82 a_12889_10933# a_12723_10933# VGND VGND sky130_fd_pr__nfet_01v8 ad=0.109 pd=1.36 as=0.0567 ps=0.69 w=0.42 l=0.15
X83 a_11693_10927# a_11159_10933# a_11598_10927# VPWR sky130_fd_pr__pfet_01v8_hvt ad=0.0767 pd=0.785 as=0.0683 ps=0.745 w=0.42 l=0.15
X86 VPWR clknet_3_1__leaf_i_stop a_13735_6581# VPWR sky130_fd_pr__pfet_01v8_hvt ad=0.0864 pd=0.91 as=0.166 ps=1.8 w=0.64 l=0.15
X88 o_result[24] a_8559_8181# VGND VGND sky130_fd_pr__nfet_01v8 ad=0.0878 pd=0.92 as=0.169 ps=1.82 w=0.65 l=0.15
X89 VGND a_17010_7637# a_16968_8041# VGND sky130_fd_pr__nfet_01v8 ad=0.121 pd=1.09 as=0.0696 ps=0.765 w=0.42 l=0.15
X90 VPWR w_dly_sig_n[5] w_dly_sig[6] VPWR sky130_fd_pr__pfet_01v8_hvt ad=0.26 pd=2.52 as=0.135 ps=1.27 w=1 l=0.15
X91 VPWR w_dly_sig[29] w_dly_sig_n[29] VPWR sky130_fd_pr__pfet_01v8_hvt ad=0.26 pd=2.52 as=0.135 ps=1.27 w=1 l=0.15
X92 VGND a_16854_8207# clknet_3_4__leaf_i_stop VGND sky130_fd_pr__nfet_01v8 ad=0.0588 pd=0.7 as=0.0588 ps=0.7 w=0.42 l=0.15
X96 VGND a_11639_12827# o_result[32] VGND sky130_fd_pr__nfet_01v8 ad=0.169 pd=1.82 as=0.0878 ps=0.92 w=0.65 l=0.15
X98 a_16941_6575# w_dly_sig[15] VGND VGND sky130_fd_pr__nfet_01v8 ad=0.0813 pd=0.83 as=0.109 ps=1.36 w=0.42 l=0.15
X100 a_19421_12021# a_19255_12021# VGND VGND sky130_fd_pr__nfet_01v8 ad=0.109 pd=1.36 as=0.0567 ps=0.69 w=0.42 l=0.15
X101 VGND clknet_0_i_stop a_16749_11445# VGND sky130_fd_pr__nfet_01v8 ad=0.111 pd=1.37 as=0.0588 ps=0.7 w=0.42 l=0.15
X102 a_8743_6005# a_8911_6005# VGND VGND sky130_fd_pr__nfet_01v8 ad=0.169 pd=1.82 as=0.0878 ps=0.92 w=0.65 l=0.15
X103 w_dly_sig[53] w_dly_sig_n[52] VGND VGND sky130_fd_pr__nfet_01v8 ad=0.0878 pd=0.92 as=0.169 ps=1.82 w=0.65 l=0.15
X104 a_11411_7895# a_11579_7895# VGND VGND sky130_fd_pr__nfet_01v8 ad=0.169 pd=1.82 as=0.0878 ps=0.92 w=0.65 l=0.15
X105 clknet_0_i_stop a_16197_9813# VPWR VPWR sky130_fd_pr__pfet_01v8_hvt ad=0.14 pd=1.28 as=0.14 ps=1.28 w=1 l=0.15
X110 w_dly_sig[4] w_dly_sig_n[3] VPWR VPWR sky130_fd_pr__pfet_01v8_hvt ad=0.135 pd=1.27 as=0.26 ps=2.52 w=1 l=0.15
X113 VGND clknet_3_7__leaf_i_stop a_19623_13109# VGND sky130_fd_pr__nfet_01v8 ad=0.0567 pd=0.69 as=0.109 ps=1.36 w=0.42 l=0.15
X115 a_20855_11837# a_20157_11471# a_20598_11583# VGND sky130_fd_pr__nfet_01v8 ad=0.0684 pd=0.74 as=0.0989 ps=0.995 w=0.36 l=0.15
X116 a_16661_10383# a_16495_10383# VGND VGND sky130_fd_pr__nfet_01v8 ad=0.109 pd=1.36 as=0.0567 ps=0.69 w=0.42 l=0.15
X120 a_15036_8041# a_14637_7669# a_14910_7663# VGND sky130_fd_pr__nfet_01v8 ad=0.0696 pd=0.765 as=0.0621 ps=0.705 w=0.36 l=0.15
X122 VGND w_dly_sig_n[36] w_dly_sig[37] VGND sky130_fd_pr__nfet_01v8 ad=0.169 pd=1.82 as=0.0878 ps=0.92 w=0.65 l=0.15
X124 clknet_3_0__leaf_i_stop a_9665_7093# VGND VGND sky130_fd_pr__nfet_01v8 ad=0.0588 pd=0.7 as=0.0588 ps=0.7 w=0.42 l=0.15
X125 w_dly_sig_n[55] w_dly_sig[55] VPWR VPWR sky130_fd_pr__pfet_01v8_hvt ad=0.135 pd=1.27 as=0.26 ps=2.52 w=1 l=0.15
X127 a_10117_13481# a_9570_13225# a_9770_13380# VPWR sky130_fd_pr__pfet_01v8_hvt ad=0.0578 pd=0.695 as=0.0683 ps=0.745 w=0.42 l=0.15
X128 a_17102_10495# a_16934_10749# VGND VGND sky130_fd_pr__nfet_01v8 ad=0.0989 pd=0.995 as=0.121 ps=1.09 w=0.64 l=0.15
X129 a_12157_6575# w_dly_sig[20] VPWR VPWR sky130_fd_pr__pfet_01v8_hvt ad=0.0578 pd=0.695 as=0.109 ps=1.36 w=0.42 l=0.15
X130 o_result[61] a_20655_13077# VGND VGND sky130_fd_pr__nfet_01v8 ad=0.0878 pd=0.92 as=0.0878 ps=0.92 w=0.65 l=0.15
X131 a_17861_10927# w_dly_sig[54] VPWR VPWR sky130_fd_pr__pfet_01v8_hvt ad=0.0578 pd=0.695 as=0.109 ps=1.36 w=0.42 l=0.15
X132 a_13254_8751# a_12981_8757# a_13169_8751# VPWR sky130_fd_pr__pfet_01v8_hvt ad=0.0683 pd=0.745 as=0.0578 ps=0.695 w=0.42 l=0.15
X135 clknet_3_7__leaf_i_stop a_21822_11471# VPWR VPWR sky130_fd_pr__pfet_01v8_hvt ad=0.14 pd=1.28 as=0.14 ps=1.28 w=1 l=0.15
X136 VPWR a_11766_10901# a_11693_10927# VPWR sky130_fd_pr__pfet_01v8_hvt ad=0.179 pd=1.26 as=0.0767 ps=0.785 w=0.42 l=0.15
X137 VPWR a_22679_10651# o_result[50] VPWR sky130_fd_pr__pfet_01v8_hvt ad=0.26 pd=2.52 as=0.135 ps=1.27 w=1 l=0.15
X138 VPWR w_dly_sig_n[61] w_dly_sig[62] VPWR sky130_fd_pr__pfet_01v8_hvt ad=0.26 pd=2.52 as=0.135 ps=1.27 w=1 l=0.15
X143 w_dly_sig[30] w_dly_sig_n[29] VPWR VPWR sky130_fd_pr__pfet_01v8_hvt ad=0.135 pd=1.27 as=0.26 ps=2.52 w=1 l=0.15
X145 VGND a_12191_10901# a_12149_11305# VGND sky130_fd_pr__nfet_01v8 ad=0.109 pd=1.36 as=0.066 ps=0.745 w=0.42 l=0.15
X148 a_11447_9295# a_11318_9569# a_11027_9269# VGND sky130_fd_pr__nfet_01v8 ad=0.0989 pd=0.995 as=0.0684 ps=0.74 w=0.36 l=0.15
X152 w_dly_sig_n[44] w_dly_sig[44] VGND VGND sky130_fd_pr__nfet_01v8 ad=0.0878 pd=0.92 as=0.169 ps=1.82 w=0.65 l=0.15
X154 a_9647_10357# a_9938_10657# a_9889_10749# VPWR sky130_fd_pr__pfet_01v8_hvt ad=0.0567 pd=0.69 as=0.0882 ps=0.84 w=0.42 l=0.15
X155 a_11865_9295# a_11318_9569# a_11518_9269# VPWR sky130_fd_pr__pfet_01v8_hvt ad=0.0578 pd=0.695 as=0.0683 ps=0.745 w=0.42 l=0.15
X156 a_16293_8757# a_16127_8757# VGND VGND sky130_fd_pr__nfet_01v8 ad=0.109 pd=1.36 as=0.0567 ps=0.69 w=0.42 l=0.15
X158 VGND a_10859_9269# o_result[0] VGND sky130_fd_pr__nfet_01v8 ad=0.0878 pd=0.92 as=0.0878 ps=0.92 w=0.65 l=0.15
X160 a_22580_10217# a_22181_9845# a_22454_9839# VGND sky130_fd_pr__nfet_01v8 ad=0.0696 pd=0.765 as=0.0621 ps=0.705 w=0.36 l=0.15
X161 a_20571_13103# a_19789_13109# a_20487_13103# VPWR sky130_fd_pr__pfet_01v8_hvt ad=0.0882 pd=0.84 as=0.0567 ps=0.69 w=0.42 l=0.15
X164 w_dly_sig[52] w_dly_sig_n[51] VGND VGND sky130_fd_pr__nfet_01v8 ad=0.0878 pd=0.92 as=0.169 ps=1.82 w=0.65 l=0.15
X165 w_dly_sig_n[51] w_dly_sig[51] VPWR VPWR sky130_fd_pr__pfet_01v8_hvt ad=0.135 pd=1.27 as=0.26 ps=2.52 w=1 l=0.15
X166 VGND a_14767_9813# o_result[40] VGND sky130_fd_pr__nfet_01v8 ad=0.169 pd=1.82 as=0.0878 ps=0.92 w=0.65 l=0.15
X168 w_dly_sig[14] w_dly_sig_n[13] VPWR VPWR sky130_fd_pr__pfet_01v8_hvt ad=0.135 pd=1.27 as=0.26 ps=2.52 w=1 l=0.15
X170 VPWR w_dly_sig[62] w_dly_sig_n[62] VPWR sky130_fd_pr__pfet_01v8_hvt ad=0.26 pd=2.52 as=0.135 ps=1.27 w=1 l=0.15
X171 VPWR clknet_3_0__leaf_i_stop a_11251_8207# VPWR sky130_fd_pr__pfet_01v8_hvt ad=0.0864 pd=0.91 as=0.166 ps=1.8 w=0.64 l=0.15
X178 o_result[14] a_17619_6549# VGND VGND sky130_fd_pr__nfet_01v8 ad=0.0878 pd=0.92 as=0.0878 ps=0.92 w=0.65 l=0.15
X179 w_dly_sig_n[21] w_dly_sig[21] VGND VGND sky130_fd_pr__nfet_01v8 ad=0.0878 pd=0.92 as=0.169 ps=1.82 w=0.65 l=0.15
X180 a_18406_7663# a_18133_7669# a_18321_7663# VPWR sky130_fd_pr__pfet_01v8_hvt ad=0.0683 pd=0.745 as=0.0578 ps=0.695 w=0.42 l=0.15
X181 VPWR a_19735_8475# o_result[6] VPWR sky130_fd_pr__pfet_01v8_hvt ad=0.26 pd=2.52 as=0.135 ps=1.27 w=1 l=0.15
X184 VGND w_dly_sig_n[20] w_dly_sig[21] VGND sky130_fd_pr__nfet_01v8 ad=0.169 pd=1.82 as=0.0878 ps=0.92 w=0.65 l=0.15
X185 VPWR a_16975_12827# a_16891_12925# VPWR sky130_fd_pr__pfet_01v8_hvt ad=0.111 pd=1.37 as=0.0882 ps=0.84 w=0.42 l=0.15
X186 VPWR clknet_3_6__leaf_i_stop a_19255_12021# VPWR sky130_fd_pr__pfet_01v8_hvt ad=0.0864 pd=0.91 as=0.166 ps=1.8 w=0.64 l=0.15
X187 o_result[28] a_8927_11159# VGND VGND sky130_fd_pr__nfet_01v8 ad=0.0878 pd=0.92 as=0.169 ps=1.82 w=0.65 l=0.15
X188 VPWR a_14342_6549# a_14269_6575# VPWR sky130_fd_pr__pfet_01v8_hvt ad=0.179 pd=1.26 as=0.0767 ps=0.785 w=0.42 l=0.15
X189 a_12797_12015# a_12263_12021# a_12702_12015# VPWR sky130_fd_pr__pfet_01v8_hvt ad=0.0767 pd=0.785 as=0.0683 ps=0.745 w=0.42 l=0.15
X192 VPWR w_dly_sig[47] w_dly_sig_n[47] VPWR sky130_fd_pr__pfet_01v8_hvt ad=0.26 pd=2.52 as=0.135 ps=1.27 w=1 l=0.15
X195 VPWR w_dly_sig_n[34] w_dly_sig[35] VPWR sky130_fd_pr__pfet_01v8_hvt ad=0.26 pd=2.52 as=0.135 ps=1.27 w=1 l=0.15
X200 o_result[20] a_11363_6299# VGND VGND sky130_fd_pr__nfet_01v8 ad=0.0878 pd=0.92 as=0.0878 ps=0.92 w=0.65 l=0.15
X204 o_result[39] a_12050_9813# VGND VGND sky130_fd_pr__nfet_01v8 ad=0.0878 pd=0.92 as=0.185 ps=1.87 w=0.65 l=0.15
X205 VPWR w_dly_sig[11] w_dly_sig_n[11] VPWR sky130_fd_pr__pfet_01v8_hvt ad=0.26 pd=2.52 as=0.135 ps=1.27 w=1 l=0.15
X208 a_9195_6005# clknet_3_0__leaf_i_stop VPWR VPWR sky130_fd_pr__pfet_01v8_hvt ad=0.166 pd=1.8 as=0.0864 ps=0.91 w=0.64 l=0.15
X209 VGND a_13330_10901# a_13288_11305# VGND sky130_fd_pr__nfet_01v8 ad=0.121 pd=1.09 as=0.0696 ps=0.765 w=0.42 l=0.15
X211 VPWR w_dly_sig[23] w_dly_sig_n[23] VPWR sky130_fd_pr__pfet_01v8_hvt ad=0.26 pd=2.52 as=0.135 ps=1.27 w=1 l=0.15
X214 clknet_3_2__leaf_i_stop a_9389_11445# VPWR VPWR sky130_fd_pr__pfet_01v8_hvt ad=0.14 pd=1.28 as=0.14 ps=1.28 w=1 l=0.15
X215 a_22086_10749# a_21647_10383# a_22001_10383# VGND sky130_fd_pr__nfet_01v8 ad=0.0621 pd=0.705 as=0.0813 ps=0.83 w=0.36 l=0.15
X216 VPWR a_12050_9813# o_result[39] VPWR sky130_fd_pr__pfet_01v8_hvt ad=0.142 pd=1.28 as=0.135 ps=1.27 w=1 l=0.15
X217 clknet_3_6__leaf_i_stop a_16749_11445# VPWR VPWR sky130_fd_pr__pfet_01v8_hvt ad=0.14 pd=1.28 as=0.265 ps=2.53 w=1 l=0.15
X219 a_20153_6953# a_19163_6581# a_20027_6575# VGND sky130_fd_pr__nfet_01v8 ad=0.066 pd=0.745 as=0.0684 ps=0.74 w=0.36 l=0.15
X222 VPWR a_9931_10357# a_9938_10657# VPWR sky130_fd_pr__pfet_01v8_hvt ad=0.0864 pd=0.91 as=0.166 ps=1.8 w=0.64 l=0.15
X223 VPWR a_22311_8725# o_result[47] VPWR sky130_fd_pr__pfet_01v8_hvt ad=0.26 pd=2.52 as=0.135 ps=1.27 w=1 l=0.15
X224 o_result[52] a_20379_10901# VGND VGND sky130_fd_pr__nfet_01v8 ad=0.0878 pd=0.92 as=0.0878 ps=0.92 w=0.65 l=0.15
X226 VGND clknet_3_4__leaf_i_stop a_16403_7669# VGND sky130_fd_pr__nfet_01v8 ad=0.0567 pd=0.69 as=0.109 ps=1.36 w=0.42 l=0.15
X227 w_dly_sig[15] w_dly_sig_n[14] VGND VGND sky130_fd_pr__nfet_01v8 ad=0.0878 pd=0.92 as=0.169 ps=1.82 w=0.65 l=0.15
X229 VGND a_15319_10901# o_result[55] VGND sky130_fd_pr__nfet_01v8 ad=0.169 pd=1.82 as=0.0878 ps=0.92 w=0.65 l=0.15
X233 VPWR a_20211_10927# a_20379_10901# VPWR sky130_fd_pr__pfet_01v8_hvt ad=0.135 pd=1.27 as=0.27 ps=2.54 w=1 l=0.15
X234 o_result[26] a_9203_10071# VGND VGND sky130_fd_pr__nfet_01v8 ad=0.0878 pd=0.92 as=0.169 ps=1.82 w=0.65 l=0.15
X235 VPWR a_13422_8725# a_13349_8751# VPWR sky130_fd_pr__pfet_01v8_hvt ad=0.179 pd=1.26 as=0.0767 ps=0.785 w=0.42 l=0.15
X238 VGND a_14817_7093# clknet_3_1__leaf_i_stop VGND sky130_fd_pr__nfet_01v8 ad=0.0588 pd=0.7 as=0.0588 ps=0.7 w=0.42 l=0.15
X239 a_9379_11145# clknet_3_2__leaf_i_stop VPWR VPWR sky130_fd_pr__pfet_01v8_hvt ad=0.166 pd=1.8 as=0.0864 ps=0.91 w=0.64 l=0.15
X240 VGND w_dly_sig[27] w_dly_sig_n[27] VGND sky130_fd_pr__nfet_01v8 ad=0.169 pd=1.82 as=0.0878 ps=0.92 w=0.65 l=0.15
X241 a_22089_6031# a_21923_6031# VPWR VPWR sky130_fd_pr__pfet_01v8_hvt ad=0.166 pd=1.8 as=0.0864 ps=0.91 w=0.64 l=0.15
X242 VPWR a_11471_12925# a_11639_12827# VPWR sky130_fd_pr__pfet_01v8_hvt ad=0.135 pd=1.27 as=0.27 ps=2.54 w=1 l=0.15
X243 o_result[60] a_21023_11739# VPWR VPWR sky130_fd_pr__pfet_01v8_hvt ad=0.135 pd=1.27 as=0.135 ps=1.27 w=1 l=0.15
X245 w_dly_sig_n[19] w_dly_sig[19] VGND VGND sky130_fd_pr__nfet_01v8 ad=0.0878 pd=0.92 as=0.169 ps=1.82 w=0.65 l=0.15
X246 VPWR w_dly_sig_n[9] w_dly_sig[10] VPWR sky130_fd_pr__pfet_01v8_hvt ad=0.26 pd=2.52 as=0.135 ps=1.27 w=1 l=0.15
X247 a_13671_10927# a_12889_10933# a_13587_10927# VPWR sky130_fd_pr__pfet_01v8_hvt ad=0.0882 pd=0.84 as=0.0567 ps=0.69 w=0.42 l=0.15
X249 VPWR w_dly_sig[36] w_dly_sig_n[36] VPWR sky130_fd_pr__pfet_01v8_hvt ad=0.26 pd=2.52 as=0.135 ps=1.27 w=1 l=0.15
X251 w_dly_sig[23] w_dly_sig_n[22] VGND VGND sky130_fd_pr__nfet_01v8 ad=0.0878 pd=0.92 as=0.169 ps=1.82 w=0.65 l=0.15
X252 w_dly_sig[26] w_dly_sig_n[25] VGND VGND sky130_fd_pr__nfet_01v8 ad=0.0878 pd=0.92 as=0.169 ps=1.82 w=0.65 l=0.15
X254 a_9758_7663# a_9485_7669# a_9673_7663# VPWR sky130_fd_pr__pfet_01v8_hvt ad=0.0683 pd=0.745 as=0.0578 ps=0.695 w=0.42 l=0.15
X257 VGND a_14817_7093# clknet_3_1__leaf_i_stop VGND sky130_fd_pr__nfet_01v8 ad=0.0588 pd=0.7 as=0.0588 ps=0.7 w=0.42 l=0.15
X258 VPWR a_14817_7093# clknet_3_1__leaf_i_stop VPWR sky130_fd_pr__pfet_01v8_hvt ad=0.138 pd=1.27 as=0.14 ps=1.28 w=1 l=0.15
X261 w_dly_sig_n[59] w_dly_sig[59] VPWR VPWR sky130_fd_pr__pfet_01v8_hvt ad=0.135 pd=1.27 as=0.26 ps=2.52 w=1 l=0.15
X262 VGND w_dly_sig[39] w_dly_sig_n[39] VGND sky130_fd_pr__nfet_01v8 ad=0.169 pd=1.82 as=0.0878 ps=0.92 w=0.65 l=0.15
X263 VGND w_dly_sig[45] w_dly_sig_n[45] VGND sky130_fd_pr__nfet_01v8 ad=0.169 pd=1.82 as=0.0878 ps=0.92 w=0.65 l=0.15
X266 VGND clknet_0_i_stop a_9665_7093# VGND sky130_fd_pr__nfet_01v8 ad=0.111 pd=1.37 as=0.0588 ps=0.7 w=0.42 l=0.15
X268 a_22270_13103# a_21831_13109# a_22185_13103# VGND sky130_fd_pr__nfet_01v8 ad=0.0621 pd=0.705 as=0.0813 ps=0.83 w=0.36 l=0.15
X269 a_10209_10217# a_9655_10057# a_9862_10116# VGND sky130_fd_pr__nfet_01v8 ad=0.0813 pd=0.83 as=0.0621 ps=0.705 w=0.36 l=0.15
X270 VPWR w_dly_sig[8] w_dly_sig_n[8] VPWR sky130_fd_pr__pfet_01v8_hvt ad=0.26 pd=2.52 as=0.135 ps=1.27 w=1 l=0.15
X271 a_16749_11445# clknet_0_i_stop VGND VGND sky130_fd_pr__nfet_01v8 ad=0.0588 pd=0.7 as=0.0588 ps=0.7 w=0.42 l=0.15
X272 a_18681_9129# a_17691_8757# a_18555_8751# VGND sky130_fd_pr__nfet_01v8 ad=0.066 pd=0.745 as=0.0684 ps=0.74 w=0.36 l=0.15
X275 VPWR a_13295_11989# o_result[36] VPWR sky130_fd_pr__pfet_01v8_hvt ad=0.26 pd=2.52 as=0.135 ps=1.27 w=1 l=0.15
X276 clknet_3_7__leaf_i_stop a_21822_11471# VGND VGND sky130_fd_pr__nfet_01v8 ad=0.0588 pd=0.7 as=0.0578 ps=0.695 w=0.42 l=0.15
X278 a_18045_12015# w_dly_sig[59] VGND VGND sky130_fd_pr__nfet_01v8 ad=0.0813 pd=0.83 as=0.109 ps=1.36 w=0.42 l=0.15
X279 a_11724_11471# a_11325_11471# a_11598_11837# VGND sky130_fd_pr__nfet_01v8 ad=0.0696 pd=0.765 as=0.0621 ps=0.705 w=0.36 l=0.15
X281 VGND w_dly_sig_n[63] w_dly_sig[64] VGND sky130_fd_pr__nfet_01v8 ad=0.169 pd=1.82 as=0.0878 ps=0.92 w=0.65 l=0.15
X282 VGND a_13295_11989# o_result[36] VGND sky130_fd_pr__nfet_01v8 ad=0.169 pd=1.82 as=0.0878 ps=0.92 w=0.65 l=0.15
X283 a_20525_11837# a_19991_11471# a_20430_11837# VPWR sky130_fd_pr__pfet_01v8_hvt ad=0.0767 pd=0.785 as=0.0683 ps=0.745 w=0.42 l=0.15
X286 VPWR a_14875_12925# a_15043_12827# VPWR sky130_fd_pr__pfet_01v8_hvt ad=0.135 pd=1.27 as=0.27 ps=2.54 w=1 l=0.15
X287 a_14434_11989# a_14266_12015# VGND VGND sky130_fd_pr__nfet_01v8 ad=0.0989 pd=0.995 as=0.121 ps=1.09 w=0.64 l=0.15
X290 clknet_3_3__leaf_i_stop a_14449_11445# VPWR VPWR sky130_fd_pr__pfet_01v8_hvt ad=0.14 pd=1.28 as=0.14 ps=1.28 w=1 l=0.15
X293 VPWR a_18574_7637# a_18501_7663# VPWR sky130_fd_pr__pfet_01v8_hvt ad=0.179 pd=1.26 as=0.0767 ps=0.785 w=0.42 l=0.15
X294 clknet_3_3__leaf_i_stop a_14449_11445# VPWR VPWR sky130_fd_pr__pfet_01v8_hvt ad=0.14 pd=1.28 as=0.14 ps=1.28 w=1 l=0.15
X298 a_12107_11837# a_11325_11471# a_12023_11837# VPWR sky130_fd_pr__pfet_01v8_hvt ad=0.0882 pd=0.84 as=0.0567 ps=0.69 w=0.42 l=0.15
X301 VGND a_22587_10901# a_22545_11305# VGND sky130_fd_pr__nfet_01v8 ad=0.109 pd=1.36 as=0.066 ps=0.745 w=0.42 l=0.15
X302 w_dly_sig[13] w_dly_sig_n[12] VGND VGND sky130_fd_pr__nfet_01v8 ad=0.0878 pd=0.92 as=0.169 ps=1.82 w=0.65 l=0.15
X303 a_22913_7119# a_21923_7119# a_22787_7485# VGND sky130_fd_pr__nfet_01v8 ad=0.066 pd=0.745 as=0.0684 ps=0.74 w=0.36 l=0.15
X305 a_21633_8751# w_dly_sig[48] VPWR VPWR sky130_fd_pr__pfet_01v8_hvt ad=0.0578 pd=0.695 as=0.109 ps=1.36 w=0.42 l=0.15
X306 w_dly_sig[29] w_dly_sig_n[28] VGND VGND sky130_fd_pr__nfet_01v8 ad=0.0878 pd=0.92 as=0.169 ps=1.82 w=0.65 l=0.15
X307 VGND w_dly_sig[52] w_dly_sig_n[52] VGND sky130_fd_pr__nfet_01v8 ad=0.169 pd=1.82 as=0.0878 ps=0.92 w=0.65 l=0.15
X309 VGND a_16854_8207# clknet_3_4__leaf_i_stop VGND sky130_fd_pr__nfet_01v8 ad=0.0588 pd=0.7 as=0.0588 ps=0.7 w=0.42 l=0.15
X310 VPWR w_dly_sig[30] w_dly_sig_n[30] VPWR sky130_fd_pr__pfet_01v8_hvt ad=0.26 pd=2.52 as=0.135 ps=1.27 w=1 l=0.15
X311 VGND a_16749_11445# clknet_3_6__leaf_i_stop VGND sky130_fd_pr__nfet_01v8 ad=0.0578 pd=0.695 as=0.0588 ps=0.7 w=0.42 l=0.15
X312 a_20521_8041# a_19531_7669# a_20395_7663# VGND sky130_fd_pr__nfet_01v8 ad=0.066 pd=0.745 as=0.0684 ps=0.74 w=0.36 l=0.15
X313 VPWR clknet_3_7__leaf_i_stop a_22199_12021# VPWR sky130_fd_pr__pfet_01v8_hvt ad=0.0864 pd=0.91 as=0.166 ps=1.8 w=0.64 l=0.15
X315 VGND clknet_0_i_stop a_9389_11445# VGND sky130_fd_pr__nfet_01v8 ad=0.0588 pd=0.7 as=0.0588 ps=0.7 w=0.42 l=0.15
X321 w_dly_sig_n[13] w_dly_sig[13] VGND VGND sky130_fd_pr__nfet_01v8 ad=0.0878 pd=0.92 as=0.169 ps=1.82 w=0.65 l=0.15
X324 VGND clknet_3_0__leaf_i_stop a_11251_8207# VGND sky130_fd_pr__nfet_01v8 ad=0.0567 pd=0.69 as=0.109 ps=1.36 w=0.42 l=0.15
X328 VPWR clknet_0_i_stop a_14817_7093# VPWR sky130_fd_pr__pfet_01v8_hvt ad=0.265 pd=2.53 as=0.14 ps=1.28 w=1 l=0.15
X329 a_13427_7881# clknet_3_1__leaf_i_stop VGND VGND sky130_fd_pr__nfet_01v8 ad=0.109 pd=1.36 as=0.0567 ps=0.69 w=0.42 l=0.15
X332 VPWR a_18723_11989# a_18639_12015# VPWR sky130_fd_pr__pfet_01v8_hvt ad=0.111 pd=1.37 as=0.0882 ps=0.84 w=0.42 l=0.15
X333 VPWR a_20598_11583# a_20525_11837# VPWR sky130_fd_pr__pfet_01v8_hvt ad=0.179 pd=1.26 as=0.0767 ps=0.785 w=0.42 l=0.15
X334 a_22365_9295# a_22199_9295# VGND VGND sky130_fd_pr__nfet_01v8 ad=0.109 pd=1.36 as=0.0567 ps=0.69 w=0.42 l=0.15
X335 a_8969_8573# a_8559_8181# VPWR VPWR sky130_fd_pr__pfet_01v8_hvt ad=0.0882 pd=0.84 as=0.111 ps=1.37 w=0.42 l=0.15
X336 a_18501_7663# a_17967_7669# a_18406_7663# VPWR sky130_fd_pr__pfet_01v8_hvt ad=0.0767 pd=0.785 as=0.0683 ps=0.745 w=0.42 l=0.15
X338 VGND w_dly_sig[17] w_dly_sig_n[17] VGND sky130_fd_pr__nfet_01v8 ad=0.169 pd=1.82 as=0.0878 ps=0.92 w=0.65 l=0.15
X339 clknet_3_0__leaf_i_stop a_9665_7093# VGND VGND sky130_fd_pr__nfet_01v8 ad=0.0588 pd=0.7 as=0.0588 ps=0.7 w=0.42 l=0.15
X341 VGND clknet_3_6__leaf_i_stop a_16495_10383# VGND sky130_fd_pr__nfet_01v8 ad=0.0567 pd=0.69 as=0.109 ps=1.36 w=0.42 l=0.15
X346 VPWR a_15503_7637# o_result[4] VPWR sky130_fd_pr__pfet_01v8_hvt ad=0.26 pd=2.52 as=0.135 ps=1.27 w=1 l=0.15
X348 w_dly_sig[37] w_dly_sig_n[36] VGND VGND sky130_fd_pr__nfet_01v8 ad=0.0878 pd=0.92 as=0.169 ps=1.82 w=0.65 l=0.15
X349 w_dly_sig_n[18] w_dly_sig[18] VPWR VPWR sky130_fd_pr__pfet_01v8_hvt ad=0.135 pd=1.27 as=0.26 ps=2.52 w=1 l=0.15
X350 a_22806_11989# a_22638_12015# VGND VGND sky130_fd_pr__nfet_01v8 ad=0.0989 pd=0.995 as=0.121 ps=1.09 w=0.64 l=0.15
X351 VPWR a_20487_13103# a_20655_13077# VPWR sky130_fd_pr__pfet_01v8_hvt ad=0.135 pd=1.27 as=0.27 ps=2.54 w=1 l=0.15
X352 a_14775_12015# a_13993_12021# a_14691_12015# VPWR sky130_fd_pr__pfet_01v8_hvt ad=0.0882 pd=0.84 as=0.0567 ps=0.69 w=0.42 l=0.15
X353 a_18072_11305# a_17673_10933# a_17946_10927# VGND sky130_fd_pr__nfet_01v8 ad=0.0696 pd=0.765 as=0.0621 ps=0.705 w=0.36 l=0.15
X355 VGND a_20487_13103# a_20655_13077# VGND sky130_fd_pr__nfet_01v8 ad=0.0878 pd=0.92 as=0.169 ps=1.82 w=0.65 l=0.15
X356 VPWR w_dly_sig_n[31] w_dly_sig[32] VPWR sky130_fd_pr__pfet_01v8_hvt ad=0.26 pd=2.52 as=0.135 ps=1.27 w=1 l=0.15
X359 clknet_0_i_stop a_16197_9813# VPWR VPWR sky130_fd_pr__pfet_01v8_hvt ad=0.14 pd=1.28 as=0.14 ps=1.28 w=1 l=0.15
X362 a_22913_6031# a_21923_6031# a_22787_6397# VGND sky130_fd_pr__nfet_01v8 ad=0.066 pd=0.745 as=0.0684 ps=0.74 w=0.36 l=0.15
X364 a_9203_10071# a_9371_10071# VPWR VPWR sky130_fd_pr__pfet_01v8_hvt ad=0.27 pd=2.54 as=0.135 ps=1.27 w=1 l=0.15
X367 VPWR a_9926_7637# a_9853_7663# VPWR sky130_fd_pr__pfet_01v8_hvt ad=0.179 pd=1.26 as=0.0767 ps=0.785 w=0.42 l=0.15
X368 VPWR w_dly_sig[34] w_dly_sig_n[34] VPWR sky130_fd_pr__pfet_01v8_hvt ad=0.26 pd=2.52 as=0.135 ps=1.27 w=1 l=0.15
X370 a_17393_8041# a_16403_7669# a_17267_7663# VGND sky130_fd_pr__nfet_01v8 ad=0.066 pd=0.745 as=0.0684 ps=0.74 w=0.36 l=0.15
X371 a_22530_7231# a_22362_7485# VGND VGND sky130_fd_pr__nfet_01v8 ad=0.0989 pd=0.995 as=0.121 ps=1.09 w=0.64 l=0.15
X374 a_9590_10205# a_9203_10071# VGND VGND sky130_fd_pr__nfet_01v8 ad=0.066 pd=0.745 as=0.109 ps=1.36 w=0.42 l=0.15
X377 a_20487_13103# a_19623_13109# a_20230_13077# VPWR sky130_fd_pr__pfet_01v8_hvt ad=0.0567 pd=0.69 as=0.109 ps=1.08 w=0.42 l=0.15
X379 a_14825_7663# w_dly_sig[5] VPWR VPWR sky130_fd_pr__pfet_01v8_hvt ad=0.0578 pd=0.695 as=0.109 ps=1.36 w=0.42 l=0.15
X381 VPWR a_11639_12827# o_result[32] VPWR sky130_fd_pr__pfet_01v8_hvt ad=0.26 pd=2.52 as=0.135 ps=1.27 w=1 l=0.15
X382 VGND a_9126_9269# a_9055_9295# VGND sky130_fd_pr__nfet_01v8 ad=0.121 pd=1.09 as=0.0989 ps=0.995 w=0.64 l=0.15
X387 o_result[1] a_12283_8475# VPWR VPWR sky130_fd_pr__pfet_01v8_hvt ad=0.135 pd=1.27 as=0.135 ps=1.27 w=1 l=0.15
X389 a_20157_13103# a_19623_13109# a_20062_13103# VPWR sky130_fd_pr__pfet_01v8_hvt ad=0.0767 pd=0.785 as=0.0683 ps=0.745 w=0.42 l=0.15
X390 VGND a_12191_10901# o_result[38] VGND sky130_fd_pr__nfet_01v8 ad=0.169 pd=1.82 as=0.0878 ps=0.92 w=0.65 l=0.15
X393 a_9665_7093# clknet_0_i_stop VGND VGND sky130_fd_pr__nfet_01v8 ad=0.0588 pd=0.7 as=0.0588 ps=0.7 w=0.42 l=0.15
X397 w_dly_sig[55] w_dly_sig_n[54] VPWR VPWR sky130_fd_pr__pfet_01v8_hvt ad=0.135 pd=1.27 as=0.26 ps=2.52 w=1 l=0.15
X398 w_dly_sig_n[28] w_dly_sig[28] VPWR VPWR sky130_fd_pr__pfet_01v8_hvt ad=0.135 pd=1.27 as=0.26 ps=2.52 w=1 l=0.15
X399 a_19885_10383# w_dly_sig[46] VGND VGND sky130_fd_pr__nfet_01v8 ad=0.066 pd=0.745 as=0.109 ps=1.36 w=0.42 l=0.15
X400 VPWR a_18723_8725# o_result[43] VPWR sky130_fd_pr__pfet_01v8_hvt ad=0.26 pd=2.52 as=0.135 ps=1.27 w=1 l=0.15
X403 a_12828_12393# a_12429_12021# a_12702_12015# VGND sky130_fd_pr__nfet_01v8 ad=0.0696 pd=0.765 as=0.0621 ps=0.705 w=0.36 l=0.15
X404 clknet_3_5__leaf_i_stop a_21822_8207# VGND VGND sky130_fd_pr__nfet_01v8 ad=0.0588 pd=0.7 as=0.0588 ps=0.7 w=0.42 l=0.15
X405 w_dly_sig_n[15] w_dly_sig[15] VGND VGND sky130_fd_pr__nfet_01v8 ad=0.0878 pd=0.92 as=0.169 ps=1.82 w=0.65 l=0.15
X407 o_result[38] a_12191_10901# VPWR VPWR sky130_fd_pr__pfet_01v8_hvt ad=0.135 pd=1.27 as=0.135 ps=1.27 w=1 l=0.15
X408 a_19786_10927# a_19513_10933# a_19701_10927# VPWR sky130_fd_pr__pfet_01v8_hvt ad=0.0683 pd=0.745 as=0.0578 ps=0.695 w=0.42 l=0.15
X409 a_15001_12559# a_14011_12559# a_14875_12925# VGND sky130_fd_pr__nfet_01v8 ad=0.066 pd=0.745 as=0.0684 ps=0.74 w=0.36 l=0.15
X412 VPWR a_12667_6575# a_12835_6549# VPWR sky130_fd_pr__pfet_01v8_hvt ad=0.135 pd=1.27 as=0.27 ps=2.54 w=1 l=0.15
X413 VPWR w_dly_sig[44] w_dly_sig_n[44] VPWR sky130_fd_pr__pfet_01v8_hvt ad=0.26 pd=2.52 as=0.135 ps=1.27 w=1 l=0.15
X415 a_22001_10383# w_dly_sig[51] VGND VGND sky130_fd_pr__nfet_01v8 ad=0.0813 pd=0.83 as=0.109 ps=1.36 w=0.42 l=0.15
X418 VPWR w_dly_sig_n[14] w_dly_sig[15] VPWR sky130_fd_pr__pfet_01v8_hvt ad=0.26 pd=2.52 as=0.135 ps=1.27 w=1 l=0.15
X420 a_14817_7093# clknet_0_i_stop VPWR VPWR sky130_fd_pr__pfet_01v8_hvt ad=0.14 pd=1.28 as=0.14 ps=1.28 w=1 l=0.15
X422 VPWR w_dly_sig[27] w_dly_sig_n[27] VPWR sky130_fd_pr__pfet_01v8_hvt ad=0.26 pd=2.52 as=0.135 ps=1.27 w=1 l=0.15
X423 a_9853_7663# a_9319_7669# a_9758_7663# VPWR sky130_fd_pr__pfet_01v8_hvt ad=0.0767 pd=0.785 as=0.0683 ps=0.745 w=0.42 l=0.15
X426 VPWR a_16854_8207# clknet_3_4__leaf_i_stop VPWR sky130_fd_pr__pfet_01v8_hvt ad=0.14 pd=1.28 as=0.14 ps=1.28 w=1 l=0.15
X428 VPWR a_22695_13103# a_22863_13077# VPWR sky130_fd_pr__pfet_01v8_hvt ad=0.135 pd=1.27 as=0.27 ps=2.54 w=1 l=0.15
X429 VGND a_22695_13103# a_22863_13077# VGND sky130_fd_pr__nfet_01v8 ad=0.0878 pd=0.92 as=0.169 ps=1.82 w=0.65 l=0.15
X434 a_19697_10383# a_19531_10383# VPWR VPWR sky130_fd_pr__pfet_01v8_hvt ad=0.166 pd=1.8 as=0.0864 ps=0.91 w=0.64 l=0.15
X435 a_19310_8319# a_19142_8573# VPWR VPWR sky130_fd_pr__pfet_01v8_hvt ad=0.109 pd=1.08 as=0.179 ps=1.26 w=0.75 l=0.15
X437 o_result[21] a_8743_6005# VGND VGND sky130_fd_pr__nfet_01v8 ad=0.0878 pd=0.92 as=0.169 ps=1.82 w=0.65 l=0.15
X440 a_20345_11471# w_dly_sig[61] VPWR VPWR sky130_fd_pr__pfet_01v8_hvt ad=0.0578 pd=0.695 as=0.109 ps=1.36 w=0.42 l=0.15
X442 clknet_3_4__leaf_i_stop a_16854_8207# VGND VGND sky130_fd_pr__nfet_01v8 ad=0.0588 pd=0.7 as=0.0588 ps=0.7 w=0.42 l=0.15